<?xml version="1.0" encoding="UTF-8"?>

<!-- generated on 01/24/20 15:10:51 by Eclipse SUMO netedit Version 1.4.0
<configuration xmlns:xsi="http://www.w3.org/2001/XMLSchema-instance" xsi:noNamespaceSchemaLocation="http://sumo.dlr.de/xsd/netconvertConfiguration.xsd">

    <input>
        <sumo-net-file value="D:\Documents\MIT\UROP\IAP20\SUMO\SUMO-3x3\3x3.net.xml"/>
    </input>

    <output>
        <output-file value="D:\Documents\MIT\UROP\IAP20\SUMO\SUMO-3x3\3x3.net.xml"/>
    </output>

    <processing>
        <geometry.min-radius.fix.railways value="false"/>
        <geometry.max-grade.fix value="false"/>
        <offset.disable-normalization value="true"/>
        <lefthand value="false"/>
    </processing>

    <junctions>
        <no-turnarounds value="true"/>
        <junctions.corner-detail value="5"/>
        <junctions.limit-turn-speed value="5.5"/>
        <rectangular-lane-cut value="false"/>
    </junctions>

    <pedestrian>
        <walkingareas value="false"/>
    </pedestrian>

    <report>
        <aggregate-warnings value="5"/>
    </report>

</configuration>
-->

<net version="1.3" junctionCornerDetail="5" limitTurnSpeed="5.50" xmlns:xsi="http://www.w3.org/2001/XMLSchema-instance" xsi:noNamespaceSchemaLocation="http://sumo.dlr.de/xsd/net_file.xsd">

    <location netOffset="0.00,0.00" convBoundary="0.00,0.00,300.00,300.00" origBoundary="-10000000000.00,-10000000000.00,10000000000.00,10000000000.00" projParameter="!"/>

    <edge id=":j0_0" function="internal">
        <lane id=":j0_0_0" index="0" allow="bus" speed="11.36" length="29.67" shape="-10.00,8.40 -8.85,0.35 -5.40,-5.40 0.35,-8.85 8.40,-10.00"/>
    </edge>
    <edge id=":j0_1" function="internal">
        <lane id=":j0_1_0" index="0" disallow="pedestrian" speed="9.69" length="21.29" shape="-4.80,8.40 -3.97,2.63 -1.50,-1.50 2.63,-3.97 8.40,-4.80"/>
    </edge>
    <edge id=":j0_2" function="internal">
        <lane id=":j0_2_0" index="0" disallow="pedestrian" speed="8.49" length="16.13" shape="-1.60,8.40 -0.97,4.03 0.90,0.90 4.03,-0.97 8.40,-1.60"/>
    </edge>
    <edge id=":j0_3" function="internal">
        <lane id=":j0_3_0" index="0" disallow="pedestrian" speed="5.37" length="5.81" shape="8.40,4.80 6.83,5.03 5.70,5.70 5.02,6.83 4.80,8.40"/>
    </edge>
    <edge id=":j0_4" function="internal">
        <lane id=":j0_4_0" index="0" disallow="pedestrian" speed="7.10" length="10.97" shape="8.40,1.60 5.43,2.03 3.30,3.30 2.02,5.43 1.60,8.40"/>
    </edge>
    <edge id=":j1_0" function="internal">
        <lane id=":j1_0_0" index="0" disallow="pedestrian" speed="6.51" length="9.03" shape="95.20,10.40 94.85,7.95 93.80,6.20 92.05,5.15 89.60,4.80"/>
    </edge>
    <edge id=":j1_1" function="internal">
        <lane id=":j1_1_0" index="0" disallow="pedestrian" speed="8.00" length="14.19" shape="98.40,10.40 97.85,6.55 96.20,3.80 93.45,2.15 89.60,1.60"/>
    </edge>
    <edge id=":j1_2" function="internal">
        <lane id=":j1_2_0" index="0" disallow="pedestrian" speed="9.84" length="21.99" shape="98.40,10.40 99.15,3.75 101.40,-1.00 105.15,-3.85 110.40,-4.80"/>
    </edge>
    <edge id=":j1_3" function="internal">
        <lane id=":j1_3_0" index="0" disallow="pedestrian" speed="9.26" length="19.35" shape="98.40,10.40 99.15,5.15 101.40,1.40 105.15,-0.85 110.40,-1.60"/>
    </edge>
    <edge id=":j1_4" function="internal">
        <lane id=":j1_4_0" index="0" disallow="pedestrian" speed="6.51" length="9.03" shape="110.40,4.80 107.95,5.15 106.20,6.20 105.15,7.95 104.80,10.40"/>
    </edge>
    <edge id=":j1_5" function="internal">
        <lane id=":j1_5_0" index="0" disallow="pedestrian" speed="13.89" length="20.80" shape="110.40,4.80 89.60,4.80"/>
        <lane id=":j1_5_1" index="1" disallow="pedestrian" speed="13.89" length="20.80" shape="110.40,1.60 89.60,1.60"/>
    </edge>
    <edge id=":j1_7" function="internal">
        <lane id=":j1_7_0" index="0" allow="bus" speed="13.89" length="20.80" shape="89.60,-10.00 110.40,-10.00"/>
    </edge>
    <edge id=":j1_8" function="internal">
        <lane id=":j1_8_0" index="0" disallow="pedestrian" speed="11.20" length="18.24" shape="89.60,-10.00 96.25,-8.72 101.00,-4.90 103.19,0.00"/>
    </edge>
    <edge id=":j1_9" function="internal">
        <lane id=":j1_9_0" index="0" disallow="pedestrian" speed="13.89" length="20.80" shape="89.60,-4.80 110.40,-4.80"/>
        <lane id=":j1_9_1" index="1" disallow="pedestrian" speed="13.89" length="20.80" shape="89.60,-1.60 110.40,-1.60"/>
    </edge>
    <edge id=":j1_11" function="internal">
        <lane id=":j1_11_0" index="0" disallow="pedestrian" speed="9.26" length="6.96" shape="89.60,-1.60 94.85,-0.85 96.27,0.00"/>
    </edge>
    <edge id=":j1_12" function="internal">
        <lane id=":j1_12_0" index="0" disallow="pedestrian" speed="11.20" length="10.59" shape="103.19,0.00 103.85,1.48 104.80,10.40"/>
    </edge>
    <edge id=":j1_13" function="internal">
        <lane id=":j1_13_0" index="0" disallow="pedestrian" speed="9.26" length="12.40" shape="96.27,0.00 98.60,1.40 100.85,5.15 101.60,10.40"/>
    </edge>
    <edge id=":j10_0" function="internal">
        <lane id=":j10_0_0" index="0" disallow="pedestrian" speed="6.51" length="9.03" shape="195.20,210.40 194.85,207.95 193.80,206.20 192.05,205.15 189.60,204.80"/>
    </edge>
    <edge id=":j10_1" function="internal">
        <lane id=":j10_1_0" index="0" disallow="pedestrian" speed="13.89" length="20.80" shape="195.20,210.40 195.20,189.60"/>
        <lane id=":j10_1_1" index="1" disallow="pedestrian" speed="13.89" length="20.80" shape="198.40,210.40 198.40,189.60"/>
    </edge>
    <edge id=":j10_3" function="internal">
        <lane id=":j10_3_0" index="0" disallow="pedestrian" speed="9.26" length="6.96" shape="198.40,210.40 199.15,205.15 200.00,203.73"/>
    </edge>
    <edge id=":j10_16" function="internal">
        <lane id=":j10_16_0" index="0" disallow="pedestrian" speed="9.26" length="12.40" shape="200.00,203.73 201.40,201.40 205.15,199.15 210.40,198.40"/>
    </edge>
    <edge id=":j10_4" function="internal">
        <lane id=":j10_4_0" index="0" disallow="pedestrian" speed="6.51" length="9.03" shape="210.40,204.80 207.95,205.15 206.20,206.20 205.15,207.95 204.80,210.40"/>
    </edge>
    <edge id=":j10_5" function="internal">
        <lane id=":j10_5_0" index="0" disallow="pedestrian" speed="13.89" length="20.80" shape="210.40,204.80 189.60,204.80"/>
        <lane id=":j10_5_1" index="1" disallow="pedestrian" speed="13.89" length="20.80" shape="210.40,201.60 189.60,201.60"/>
    </edge>
    <edge id=":j10_7" function="internal">
        <lane id=":j10_7_0" index="0" disallow="pedestrian" speed="9.26" length="6.96" shape="210.40,201.60 205.15,200.85 203.73,200.00"/>
    </edge>
    <edge id=":j10_17" function="internal">
        <lane id=":j10_17_0" index="0" disallow="pedestrian" speed="9.26" length="12.40" shape="203.73,200.00 201.40,198.60 199.15,194.85 198.40,189.60"/>
    </edge>
    <edge id=":j10_8" function="internal">
        <lane id=":j10_8_0" index="0" disallow="pedestrian" speed="6.51" length="9.03" shape="204.80,189.60 205.15,192.05 206.20,193.80 207.95,194.85 210.40,195.20"/>
    </edge>
    <edge id=":j10_9" function="internal">
        <lane id=":j10_9_0" index="0" disallow="pedestrian" speed="13.89" length="20.80" shape="204.80,189.60 204.80,210.40"/>
        <lane id=":j10_9_1" index="1" disallow="pedestrian" speed="13.89" length="20.80" shape="201.60,189.60 201.60,210.40"/>
    </edge>
    <edge id=":j10_11" function="internal">
        <lane id=":j10_11_0" index="0" disallow="pedestrian" speed="9.26" length="6.96" shape="201.60,189.60 200.85,194.85 200.00,196.27"/>
    </edge>
    <edge id=":j10_18" function="internal">
        <lane id=":j10_18_0" index="0" disallow="pedestrian" speed="9.26" length="12.40" shape="200.00,196.27 198.60,198.60 194.85,200.85 189.60,201.60"/>
    </edge>
    <edge id=":j10_12" function="internal">
        <lane id=":j10_12_0" index="0" disallow="pedestrian" speed="6.51" length="9.03" shape="189.60,195.20 192.05,194.85 193.80,193.80 194.85,192.05 195.20,189.60"/>
    </edge>
    <edge id=":j10_13" function="internal">
        <lane id=":j10_13_0" index="0" disallow="pedestrian" speed="13.89" length="20.80" shape="189.60,195.20 210.40,195.20"/>
        <lane id=":j10_13_1" index="1" disallow="pedestrian" speed="13.89" length="20.80" shape="189.60,198.40 210.40,198.40"/>
    </edge>
    <edge id=":j10_15" function="internal">
        <lane id=":j10_15_0" index="0" disallow="pedestrian" speed="9.26" length="6.96" shape="189.60,198.40 194.85,199.15 196.27,200.00"/>
    </edge>
    <edge id=":j10_19" function="internal">
        <lane id=":j10_19_0" index="0" disallow="pedestrian" speed="9.26" length="12.40" shape="196.27,200.00 198.60,201.40 200.85,205.15 201.60,210.40"/>
    </edge>
    <edge id=":j11_0" function="internal">
        <lane id=":j11_0_0" index="0" disallow="pedestrian" speed="6.51" length="9.03" shape="295.20,210.40 294.85,207.95 293.80,206.20 292.05,205.15 289.60,204.80"/>
    </edge>
    <edge id=":j11_1" function="internal">
        <lane id=":j11_1_0" index="0" disallow="pedestrian" speed="13.89" length="20.80" shape="295.20,210.40 295.20,189.60"/>
        <lane id=":j11_1_1" index="1" disallow="pedestrian" speed="13.89" length="20.80" shape="298.40,210.40 298.40,189.60"/>
    </edge>
    <edge id=":j11_3" function="internal">
        <lane id=":j11_3_0" index="0" allow="bus" speed="13.89" length="20.80" shape="310.00,189.60 310.00,210.40"/>
    </edge>
    <edge id=":j11_4" function="internal">
        <lane id=":j11_4_0" index="0" disallow="pedestrian" speed="11.20" length="18.24" shape="310.00,189.60 308.73,196.25 304.90,201.00 300.00,203.19"/>
    </edge>
    <edge id=":j11_5" function="internal">
        <lane id=":j11_5_0" index="0" disallow="pedestrian" speed="13.89" length="20.80" shape="304.80,189.60 304.80,210.40"/>
        <lane id=":j11_5_1" index="1" disallow="pedestrian" speed="13.89" length="20.80" shape="301.60,189.60 301.60,210.40"/>
    </edge>
    <edge id=":j11_7" function="internal">
        <lane id=":j11_7_0" index="0" disallow="pedestrian" speed="9.26" length="6.96" shape="301.60,189.60 300.85,194.85 300.00,196.27"/>
    </edge>
    <edge id=":j11_12" function="internal">
        <lane id=":j11_12_0" index="0" disallow="pedestrian" speed="11.20" length="10.59" shape="300.00,203.19 298.52,203.85 289.60,204.80"/>
    </edge>
    <edge id=":j11_13" function="internal">
        <lane id=":j11_13_0" index="0" disallow="pedestrian" speed="9.26" length="12.40" shape="300.00,196.27 298.60,198.60 294.85,200.85 289.60,201.60"/>
    </edge>
    <edge id=":j11_8" function="internal">
        <lane id=":j11_8_0" index="0" disallow="pedestrian" speed="6.51" length="9.03" shape="289.60,195.20 292.05,194.85 293.80,193.80 294.85,192.05 295.20,189.60"/>
    </edge>
    <edge id=":j11_9" function="internal">
        <lane id=":j11_9_0" index="0" disallow="pedestrian" speed="8.00" length="14.19" shape="289.60,198.40 293.45,197.85 296.20,196.20 297.85,193.45 298.40,189.60"/>
    </edge>
    <edge id=":j11_10" function="internal">
        <lane id=":j11_10_0" index="0" disallow="pedestrian" speed="9.84" length="21.99" shape="289.60,198.40 296.25,199.15 301.00,201.40 303.85,205.15 304.80,210.40"/>
    </edge>
    <edge id=":j11_11" function="internal">
        <lane id=":j11_11_0" index="0" disallow="pedestrian" speed="9.26" length="19.35" shape="289.60,198.40 294.85,199.15 298.60,201.40 300.85,205.15 301.60,210.40"/>
    </edge>
    <edge id=":j12_0" function="internal">
        <lane id=":j12_0_0" index="0" allow="bus" speed="11.36" length="29.67" shape="8.40,310.00 0.35,308.85 -5.40,305.40 -8.85,299.65 -10.00,291.60"/>
    </edge>
    <edge id=":j12_1" function="internal">
        <lane id=":j12_1_0" index="0" disallow="pedestrian" speed="9.69" length="21.29" shape="8.40,304.80 2.63,303.98 -1.50,301.50 -3.97,297.38 -4.80,291.60"/>
    </edge>
    <edge id=":j12_2" function="internal">
        <lane id=":j12_2_0" index="0" disallow="pedestrian" speed="8.49" length="16.13" shape="8.40,301.60 4.03,300.98 0.90,299.10 -0.97,295.98 -1.60,291.60"/>
    </edge>
    <edge id=":j12_3" function="internal">
        <lane id=":j12_3_0" index="0" disallow="pedestrian" speed="5.37" length="5.81" shape="4.80,291.60 5.03,293.18 5.70,294.30 6.83,294.97 8.40,295.20"/>
    </edge>
    <edge id=":j12_4" function="internal">
        <lane id=":j12_4_0" index="0" disallow="pedestrian" speed="7.10" length="10.97" shape="1.60,291.60 2.03,294.57 3.30,296.70 5.43,297.98 8.40,298.40"/>
    </edge>
    <edge id=":j13_0" function="internal">
        <lane id=":j13_0_0" index="0" allow="bus" speed="13.89" length="20.80" shape="110.40,310.00 89.60,310.00"/>
    </edge>
    <edge id=":j13_1" function="internal">
        <lane id=":j13_1_0" index="0" disallow="pedestrian" speed="11.20" length="18.24" shape="110.40,310.00 103.75,308.73 99.00,304.90 96.81,300.00"/>
    </edge>
    <edge id=":j13_2" function="internal">
        <lane id=":j13_2_0" index="0" disallow="pedestrian" speed="13.89" length="20.80" shape="110.40,304.80 89.60,304.80"/>
        <lane id=":j13_2_1" index="1" disallow="pedestrian" speed="13.89" length="20.80" shape="110.40,301.60 89.60,301.60"/>
    </edge>
    <edge id=":j13_4" function="internal">
        <lane id=":j13_4_0" index="0" disallow="pedestrian" speed="9.26" length="6.96" shape="110.40,301.60 105.15,300.85 103.73,300.00"/>
    </edge>
    <edge id=":j13_12" function="internal">
        <lane id=":j13_12_0" index="0" disallow="pedestrian" speed="11.20" length="10.59" shape="96.81,300.00 96.15,298.52 95.20,289.60"/>
    </edge>
    <edge id=":j13_13" function="internal">
        <lane id=":j13_13_0" index="0" disallow="pedestrian" speed="9.26" length="12.40" shape="103.73,300.00 101.40,298.60 99.15,294.85 98.40,289.60"/>
    </edge>
    <edge id=":j13_5" function="internal">
        <lane id=":j13_5_0" index="0" disallow="pedestrian" speed="6.51" length="9.03" shape="104.80,289.60 105.15,292.05 106.20,293.80 107.95,294.85 110.40,295.20"/>
    </edge>
    <edge id=":j13_6" function="internal">
        <lane id=":j13_6_0" index="0" disallow="pedestrian" speed="8.00" length="14.19" shape="101.60,289.60 102.15,293.45 103.80,296.20 106.55,297.85 110.40,298.40"/>
    </edge>
    <edge id=":j13_7" function="internal">
        <lane id=":j13_7_0" index="0" disallow="pedestrian" speed="9.84" length="21.99" shape="101.60,289.60 100.85,296.25 98.60,301.00 94.85,303.85 89.60,304.80"/>
    </edge>
    <edge id=":j13_8" function="internal">
        <lane id=":j13_8_0" index="0" disallow="pedestrian" speed="9.26" length="19.35" shape="101.60,289.60 100.85,294.85 98.60,298.60 94.85,300.85 89.60,301.60"/>
    </edge>
    <edge id=":j13_9" function="internal">
        <lane id=":j13_9_0" index="0" disallow="pedestrian" speed="6.51" length="9.03" shape="89.60,295.20 92.05,294.85 93.80,293.80 94.85,292.05 95.20,289.60"/>
    </edge>
    <edge id=":j13_10" function="internal">
        <lane id=":j13_10_0" index="0" disallow="pedestrian" speed="13.89" length="20.80" shape="89.60,295.20 110.40,295.20"/>
        <lane id=":j13_10_1" index="1" disallow="pedestrian" speed="13.89" length="20.80" shape="89.60,298.40 110.40,298.40"/>
    </edge>
    <edge id=":j14_0" function="internal">
        <lane id=":j14_0_0" index="0" allow="bus" speed="13.89" length="20.80" shape="210.40,310.00 189.60,310.00"/>
    </edge>
    <edge id=":j14_1" function="internal">
        <lane id=":j14_1_0" index="0" disallow="pedestrian" speed="11.20" length="18.24" shape="210.40,310.00 203.75,308.73 199.00,304.90 196.81,300.00"/>
    </edge>
    <edge id=":j14_2" function="internal">
        <lane id=":j14_2_0" index="0" disallow="pedestrian" speed="13.89" length="20.80" shape="210.40,304.80 189.60,304.80"/>
        <lane id=":j14_2_1" index="1" disallow="pedestrian" speed="13.89" length="20.80" shape="210.40,301.60 189.60,301.60"/>
    </edge>
    <edge id=":j14_4" function="internal">
        <lane id=":j14_4_0" index="0" disallow="pedestrian" speed="9.26" length="6.96" shape="210.40,301.60 205.15,300.85 203.73,300.00"/>
    </edge>
    <edge id=":j14_12" function="internal">
        <lane id=":j14_12_0" index="0" disallow="pedestrian" speed="11.20" length="10.59" shape="196.81,300.00 196.15,298.52 195.20,289.60"/>
    </edge>
    <edge id=":j14_13" function="internal">
        <lane id=":j14_13_0" index="0" disallow="pedestrian" speed="9.26" length="12.40" shape="203.73,300.00 201.40,298.60 199.15,294.85 198.40,289.60"/>
    </edge>
    <edge id=":j14_5" function="internal">
        <lane id=":j14_5_0" index="0" disallow="pedestrian" speed="6.51" length="9.03" shape="204.80,289.60 205.15,292.05 206.20,293.80 207.95,294.85 210.40,295.20"/>
    </edge>
    <edge id=":j14_6" function="internal">
        <lane id=":j14_6_0" index="0" disallow="pedestrian" speed="8.00" length="14.19" shape="201.60,289.60 202.15,293.45 203.80,296.20 206.55,297.85 210.40,298.40"/>
    </edge>
    <edge id=":j14_7" function="internal">
        <lane id=":j14_7_0" index="0" disallow="pedestrian" speed="9.84" length="21.99" shape="201.60,289.60 200.85,296.25 198.60,301.00 194.85,303.85 189.60,304.80"/>
    </edge>
    <edge id=":j14_8" function="internal">
        <lane id=":j14_8_0" index="0" disallow="pedestrian" speed="9.26" length="19.35" shape="201.60,289.60 200.85,294.85 198.60,298.60 194.85,300.85 189.60,301.60"/>
    </edge>
    <edge id=":j14_9" function="internal">
        <lane id=":j14_9_0" index="0" disallow="pedestrian" speed="6.51" length="9.03" shape="189.60,295.20 192.05,294.85 193.80,293.80 194.85,292.05 195.20,289.60"/>
    </edge>
    <edge id=":j14_10" function="internal">
        <lane id=":j14_10_0" index="0" disallow="pedestrian" speed="13.89" length="20.80" shape="189.60,295.20 210.40,295.20"/>
        <lane id=":j14_10_1" index="1" disallow="pedestrian" speed="13.89" length="20.80" shape="189.60,298.40 210.40,298.40"/>
    </edge>
    <edge id=":j15_0" function="internal">
        <lane id=":j15_0_0" index="0" allow="bus" speed="11.36" length="29.67" shape="310.00,291.60 308.85,299.65 305.40,305.40 299.65,308.85 291.60,310.00"/>
    </edge>
    <edge id=":j15_1" function="internal">
        <lane id=":j15_1_0" index="0" disallow="pedestrian" speed="9.69" length="21.29" shape="304.80,291.60 303.98,297.38 301.50,301.50 297.38,303.98 291.60,304.80"/>
    </edge>
    <edge id=":j15_2" function="internal">
        <lane id=":j15_2_0" index="0" disallow="pedestrian" speed="8.49" length="16.13" shape="301.60,291.60 300.98,295.98 299.10,299.10 295.98,300.98 291.60,301.60"/>
    </edge>
    <edge id=":j15_3" function="internal">
        <lane id=":j15_3_0" index="0" disallow="pedestrian" speed="5.37" length="5.81" shape="291.60,295.20 293.18,294.98 294.30,294.30 294.97,293.17 295.20,291.60"/>
    </edge>
    <edge id=":j15_4" function="internal">
        <lane id=":j15_4_0" index="0" disallow="pedestrian" speed="7.10" length="10.97" shape="291.60,298.40 294.57,297.98 296.70,296.70 297.98,294.57 298.40,291.60"/>
    </edge>
    <edge id=":j2_0" function="internal">
        <lane id=":j2_0_0" index="0" disallow="pedestrian" speed="6.51" length="9.03" shape="195.20,10.40 194.85,7.95 193.80,6.20 192.05,5.15 189.60,4.80"/>
    </edge>
    <edge id=":j2_1" function="internal">
        <lane id=":j2_1_0" index="0" disallow="pedestrian" speed="8.00" length="14.19" shape="198.40,10.40 197.85,6.55 196.20,3.80 193.45,2.15 189.60,1.60"/>
    </edge>
    <edge id=":j2_2" function="internal">
        <lane id=":j2_2_0" index="0" disallow="pedestrian" speed="9.84" length="21.99" shape="198.40,10.40 199.15,3.75 201.40,-1.00 205.15,-3.85 210.40,-4.80"/>
    </edge>
    <edge id=":j2_3" function="internal">
        <lane id=":j2_3_0" index="0" disallow="pedestrian" speed="9.26" length="19.35" shape="198.40,10.40 199.15,5.15 201.40,1.40 205.15,-0.85 210.40,-1.60"/>
    </edge>
    <edge id=":j2_4" function="internal">
        <lane id=":j2_4_0" index="0" disallow="pedestrian" speed="6.51" length="9.03" shape="210.40,4.80 207.95,5.15 206.20,6.20 205.15,7.95 204.80,10.40"/>
    </edge>
    <edge id=":j2_5" function="internal">
        <lane id=":j2_5_0" index="0" disallow="pedestrian" speed="13.89" length="20.80" shape="210.40,4.80 189.60,4.80"/>
        <lane id=":j2_5_1" index="1" disallow="pedestrian" speed="13.89" length="20.80" shape="210.40,1.60 189.60,1.60"/>
    </edge>
    <edge id=":j2_7" function="internal">
        <lane id=":j2_7_0" index="0" allow="bus" speed="13.89" length="20.80" shape="189.60,-10.00 210.40,-10.00"/>
    </edge>
    <edge id=":j2_8" function="internal">
        <lane id=":j2_8_0" index="0" disallow="pedestrian" speed="11.20" length="18.24" shape="189.60,-10.00 196.25,-8.72 201.00,-4.90 203.19,0.00"/>
    </edge>
    <edge id=":j2_9" function="internal">
        <lane id=":j2_9_0" index="0" disallow="pedestrian" speed="13.89" length="20.80" shape="189.60,-4.80 210.40,-4.80"/>
        <lane id=":j2_9_1" index="1" disallow="pedestrian" speed="13.89" length="20.80" shape="189.60,-1.60 210.40,-1.60"/>
    </edge>
    <edge id=":j2_11" function="internal">
        <lane id=":j2_11_0" index="0" disallow="pedestrian" speed="9.26" length="6.96" shape="189.60,-1.60 194.85,-0.85 196.27,-0.00"/>
    </edge>
    <edge id=":j2_12" function="internal">
        <lane id=":j2_12_0" index="0" disallow="pedestrian" speed="11.20" length="10.59" shape="203.19,0.00 203.85,1.48 204.80,10.40"/>
    </edge>
    <edge id=":j2_13" function="internal">
        <lane id=":j2_13_0" index="0" disallow="pedestrian" speed="9.26" length="12.40" shape="196.27,-0.00 198.60,1.40 200.85,5.15 201.60,10.40"/>
    </edge>
    <edge id=":j3_0" function="internal">
        <lane id=":j3_0_0" index="0" disallow="pedestrian" speed="5.37" length="5.81" shape="295.20,8.40 294.98,6.83 294.30,5.70 293.17,5.02 291.60,4.80"/>
    </edge>
    <edge id=":j3_1" function="internal">
        <lane id=":j3_1_0" index="0" disallow="pedestrian" speed="7.10" length="10.97" shape="298.40,8.40 297.98,5.43 296.70,3.30 294.57,2.02 291.60,1.60"/>
    </edge>
    <edge id=":j3_2" function="internal">
        <lane id=":j3_2_0" index="0" allow="bus" speed="11.36" length="29.67" shape="291.60,-10.00 299.65,-8.85 305.40,-5.40 308.85,0.35 310.00,8.40"/>
    </edge>
    <edge id=":j3_3" function="internal">
        <lane id=":j3_3_0" index="0" disallow="pedestrian" speed="9.69" length="21.29" shape="291.60,-4.80 297.38,-3.97 301.50,-1.50 303.98,2.63 304.80,8.40"/>
    </edge>
    <edge id=":j3_4" function="internal">
        <lane id=":j3_4_0" index="0" disallow="pedestrian" speed="8.49" length="16.13" shape="291.60,-1.60 295.98,-0.97 299.10,0.90 300.98,4.03 301.60,8.40"/>
    </edge>
    <edge id=":j4_0" function="internal">
        <lane id=":j4_0_0" index="0" allow="bus" speed="13.89" length="20.80" shape="-10.00,110.40 -10.00,89.60"/>
    </edge>
    <edge id=":j4_1" function="internal">
        <lane id=":j4_1_0" index="0" disallow="pedestrian" speed="11.20" length="18.24" shape="-10.00,110.40 -8.72,103.75 -4.90,99.00 0.00,96.81"/>
    </edge>
    <edge id=":j4_2" function="internal">
        <lane id=":j4_2_0" index="0" disallow="pedestrian" speed="13.89" length="20.80" shape="-4.80,110.40 -4.80,89.60"/>
        <lane id=":j4_2_1" index="1" disallow="pedestrian" speed="13.89" length="20.80" shape="-1.60,110.40 -1.60,89.60"/>
    </edge>
    <edge id=":j4_4" function="internal">
        <lane id=":j4_4_0" index="0" disallow="pedestrian" speed="9.26" length="6.96" shape="-1.60,110.40 -0.85,105.15 0.00,103.73"/>
    </edge>
    <edge id=":j4_12" function="internal">
        <lane id=":j4_12_0" index="0" disallow="pedestrian" speed="11.20" length="10.59" shape="0.00,96.81 1.48,96.15 10.40,95.20"/>
    </edge>
    <edge id=":j4_13" function="internal">
        <lane id=":j4_13_0" index="0" disallow="pedestrian" speed="9.26" length="12.40" shape="0.00,103.73 1.40,101.40 5.15,99.15 10.40,98.40"/>
    </edge>
    <edge id=":j4_5" function="internal">
        <lane id=":j4_5_0" index="0" disallow="pedestrian" speed="6.51" length="9.03" shape="10.40,104.80 7.95,105.15 6.20,106.20 5.15,107.95 4.80,110.40"/>
    </edge>
    <edge id=":j4_6" function="internal">
        <lane id=":j4_6_0" index="0" disallow="pedestrian" speed="8.00" length="14.19" shape="10.40,101.60 6.55,102.15 3.80,103.80 2.15,106.55 1.60,110.40"/>
    </edge>
    <edge id=":j4_7" function="internal">
        <lane id=":j4_7_0" index="0" disallow="pedestrian" speed="9.84" length="21.99" shape="10.40,101.60 3.75,100.85 -1.00,98.60 -3.85,94.85 -4.80,89.60"/>
    </edge>
    <edge id=":j4_8" function="internal">
        <lane id=":j4_8_0" index="0" disallow="pedestrian" speed="9.26" length="19.35" shape="10.40,101.60 5.15,100.85 1.40,98.60 -0.85,94.85 -1.60,89.60"/>
    </edge>
    <edge id=":j4_9" function="internal">
        <lane id=":j4_9_0" index="0" disallow="pedestrian" speed="6.51" length="9.03" shape="4.80,89.60 5.15,92.05 6.20,93.80 7.95,94.85 10.40,95.20"/>
    </edge>
    <edge id=":j4_10" function="internal">
        <lane id=":j4_10_0" index="0" disallow="pedestrian" speed="13.89" length="20.80" shape="4.80,89.60 4.80,110.40"/>
        <lane id=":j4_10_1" index="1" disallow="pedestrian" speed="13.89" length="20.80" shape="1.60,89.60 1.60,110.40"/>
    </edge>
    <edge id=":j5_0" function="internal">
        <lane id=":j5_0_0" index="0" disallow="pedestrian" speed="6.51" length="9.03" shape="95.20,110.40 94.85,107.95 93.80,106.20 92.05,105.15 89.60,104.80"/>
    </edge>
    <edge id=":j5_1" function="internal">
        <lane id=":j5_1_0" index="0" disallow="pedestrian" speed="13.89" length="20.80" shape="95.20,110.40 95.20,89.60"/>
        <lane id=":j5_1_1" index="1" disallow="pedestrian" speed="13.89" length="20.80" shape="98.40,110.40 98.40,89.60"/>
    </edge>
    <edge id=":j5_3" function="internal">
        <lane id=":j5_3_0" index="0" disallow="pedestrian" speed="9.26" length="6.96" shape="98.40,110.40 99.15,105.15 100.00,103.73"/>
    </edge>
    <edge id=":j5_16" function="internal">
        <lane id=":j5_16_0" index="0" disallow="pedestrian" speed="9.26" length="12.40" shape="100.00,103.73 101.40,101.40 105.15,99.15 110.40,98.40"/>
    </edge>
    <edge id=":j5_4" function="internal">
        <lane id=":j5_4_0" index="0" disallow="pedestrian" speed="6.51" length="9.03" shape="110.40,104.80 107.95,105.15 106.20,106.20 105.15,107.95 104.80,110.40"/>
    </edge>
    <edge id=":j5_5" function="internal">
        <lane id=":j5_5_0" index="0" disallow="pedestrian" speed="13.89" length="20.80" shape="110.40,104.80 89.60,104.80"/>
        <lane id=":j5_5_1" index="1" disallow="pedestrian" speed="13.89" length="20.80" shape="110.40,101.60 89.60,101.60"/>
    </edge>
    <edge id=":j5_7" function="internal">
        <lane id=":j5_7_0" index="0" disallow="pedestrian" speed="9.26" length="6.96" shape="110.40,101.60 105.15,100.85 103.73,100.00"/>
    </edge>
    <edge id=":j5_17" function="internal">
        <lane id=":j5_17_0" index="0" disallow="pedestrian" speed="9.26" length="12.40" shape="103.73,100.00 101.40,98.60 99.15,94.85 98.40,89.60"/>
    </edge>
    <edge id=":j5_8" function="internal">
        <lane id=":j5_8_0" index="0" disallow="pedestrian" speed="6.51" length="9.03" shape="104.80,89.60 105.15,92.05 106.20,93.80 107.95,94.85 110.40,95.20"/>
    </edge>
    <edge id=":j5_9" function="internal">
        <lane id=":j5_9_0" index="0" disallow="pedestrian" speed="13.89" length="20.80" shape="104.80,89.60 104.80,110.40"/>
        <lane id=":j5_9_1" index="1" disallow="pedestrian" speed="13.89" length="20.80" shape="101.60,89.60 101.60,110.40"/>
    </edge>
    <edge id=":j5_11" function="internal">
        <lane id=":j5_11_0" index="0" disallow="pedestrian" speed="9.26" length="6.96" shape="101.60,89.60 100.85,94.85 100.00,96.27"/>
    </edge>
    <edge id=":j5_18" function="internal">
        <lane id=":j5_18_0" index="0" disallow="pedestrian" speed="9.26" length="12.40" shape="100.00,96.27 98.60,98.60 94.85,100.85 89.60,101.60"/>
    </edge>
    <edge id=":j5_12" function="internal">
        <lane id=":j5_12_0" index="0" disallow="pedestrian" speed="6.51" length="9.03" shape="89.60,95.20 92.05,94.85 93.80,93.80 94.85,92.05 95.20,89.60"/>
    </edge>
    <edge id=":j5_13" function="internal">
        <lane id=":j5_13_0" index="0" disallow="pedestrian" speed="13.89" length="20.80" shape="89.60,95.20 110.40,95.20"/>
        <lane id=":j5_13_1" index="1" disallow="pedestrian" speed="13.89" length="20.80" shape="89.60,98.40 110.40,98.40"/>
    </edge>
    <edge id=":j5_15" function="internal">
        <lane id=":j5_15_0" index="0" disallow="pedestrian" speed="9.26" length="6.96" shape="89.60,98.40 94.85,99.15 96.27,100.00"/>
    </edge>
    <edge id=":j5_19" function="internal">
        <lane id=":j5_19_0" index="0" disallow="pedestrian" speed="9.26" length="12.40" shape="96.27,100.00 98.60,101.40 100.85,105.15 101.60,110.40"/>
    </edge>
    <edge id=":j6_0" function="internal">
        <lane id=":j6_0_0" index="0" disallow="pedestrian" speed="6.51" length="9.03" shape="195.20,110.40 194.85,107.95 193.80,106.20 192.05,105.15 189.60,104.80"/>
    </edge>
    <edge id=":j6_1" function="internal">
        <lane id=":j6_1_0" index="0" disallow="pedestrian" speed="13.89" length="20.80" shape="195.20,110.40 195.20,89.60"/>