<routes>

	<vType id="car" vClass="passenger" length="5" accel="3.5" decel="2.2" sigma="1.0" maxspeed="10"/>

	<vType id="ev" 
		vClass="emergency" length="7" accel="5.5" decel="2.2" 
		sigma="1.0" maxspeed="20" guiShape="emergency" speedFactor="2.0"
		minGapLat="0.2"/>

	<route id="route_0" edges="e1 e2 e3 e4 e5"/>
<!-- 	<vehicle id="0" type="car" route="route_0" depart="0"/> -->

</routes>