<configuration>

	<input>
		<net-file value="cooperH.net.xml"/>
		<route-files value="cooperH.trips.rou.xml"/>
		<additional-files value="3x3.add.xml"/>
		<log value="log.txt"/>
	</input>

</configuration>