<?xml version="1.0" encoding="UTF-8"?>

<!-- generated on 01/28/20 19:27:38 by Eclipse SUMO netedit Version 1.4.0
<configuration xmlns:xsi="http://www.w3.org/2001/XMLSchema-instance" xsi:noNamespaceSchemaLocation="http://sumo.dlr.de/xsd/netconvertConfiguration.xsd">

    <input>
        <sumo-net-file value="D:\Documents\MIT\UROP\IAP20\SUMO\SUMO-3x3\cooperH.net.xml"/>
    </input>

    <output>
        <output-file value="D:\Documents\MIT\UROP\IAP20\SUMO\SUMO-3x3\cooperH.net.xml"/>
    </output>

    <processing>
        <geometry.min-radius.fix.railways value="false"/>
        <geometry.max-grade.fix value="false"/>
        <offset.disable-normalization value="true"/>
        <lefthand value="false"/>
    </processing>

    <junctions>
        <no-turnarounds value="true"/>
        <junctions.corner-detail value="5"/>
        <junctions.limit-turn-speed value="5.5"/>
        <rectangular-lane-cut value="false"/>
    </junctions>

    <pedestrian>
        <walkingareas value="false"/>
    </pedestrian>

    <report>
        <aggregate-warnings value="5"/>
    </report>

</configuration>
-->

<net version="1.3" junctionCornerDetail="5" limitTurnSpeed="5.50" xmlns:xsi="http://www.w3.org/2001/XMLSchema-instance" xsi:noNamespaceSchemaLocation="http://sumo.dlr.de/xsd/net_file.xsd">

    <location netOffset="0.00,0.00" convBoundary="-5.80,0.00,300.00,300.00" origBoundary="-10000000000.00,-10000000000.00,10000000000.00,10000000000.00" projParameter="!"/>

    <edge id=":j0_0" function="internal">
        <lane id=":j0_0_0" index="0" allow="bus" speed="12.28" length="34.84" shape="-10.00,11.60 -8.65,2.15 -4.60,-4.60 2.15,-8.65 11.60,-10.00"/>
    </edge>
    <edge id=":j0_1" function="internal">
        <lane id=":j0_1_0" index="0" disallow="pedestrian" speed="10.75" length="26.45" shape="-4.80,11.60 -3.77,4.43 -0.70,-0.70 4.43,-3.77 11.60,-4.80"/>
    </edge>
    <edge id=":j0_2" function="internal">
        <lane id=":j0_2_0" index="0" disallow="pedestrian" speed="9.69" length="21.29" shape="-1.60,11.60 -0.77,5.83 1.70,1.70 5.83,-0.77 11.60,-1.60"/>
    </edge>
    <edge id=":j0_3" function="internal">
        <lane id=":j0_3_0" index="0" allow="bus" speed="3.90" length="2.58" shape="11.60,10.00 10.90,10.10 10.40,10.40 10.10,10.90 10.00,11.60"/>
    </edge>
    <edge id=":j0_4" function="internal">
        <lane id=":j0_4_0" index="0" disallow="pedestrian" speed="7.10" length="10.97" shape="11.60,4.80 8.63,5.23 6.50,6.50 5.22,8.63 4.80,11.60"/>
    </edge>
    <edge id=":j0_5" function="internal">
        <lane id=":j0_5_0" index="0" disallow="pedestrian" speed="8.49" length="16.13" shape="11.60,1.60 7.23,2.23 4.10,4.10 2.23,7.23 1.60,11.60"/>
    </edge>
    <edge id=":j1_0" function="internal">
        <lane id=":j1_0_0" index="0" allow="bus" speed="6.51" length="9.03" shape="90.00,15.60 89.65,13.15 88.60,11.40 86.85,10.35 84.40,10.00"/>
    </edge>
    <edge id=":j1_1" function="internal">
        <lane id=":j1_1_0" index="0" disallow="pedestrian" speed="12.67" length="37.19" shape="90.00,15.60 91.60,6.68 96.40,0.30 104.40,-3.52 115.60,-4.80"/>
    </edge>
    <edge id=":j1_2" function="internal">
        <lane id=":j1_2_0" index="0" disallow="pedestrian" speed="8.81" length="17.42" shape="95.20,15.60 94.53,10.88 92.50,7.50 89.13,5.48 84.40,4.80"/>
    </edge>
    <edge id=":j1_3" function="internal">
        <lane id=":j1_3_0" index="0" disallow="pedestrian" speed="9.96" length="22.58" shape="98.40,15.60 97.53,9.48 94.90,5.10 90.53,2.47 84.40,1.60"/>
    </edge>
    <edge id=":j1_4" function="internal">
        <lane id=":j1_4_0" index="0" disallow="pedestrian" speed="11.00" length="27.74" shape="98.40,15.60 99.47,8.08 102.70,2.70 108.08,-0.52 115.60,-1.60"/>
    </edge>
    <edge id=":j1_5" function="internal">
        <lane id=":j1_5_0" index="0" allow="bus" speed="6.51" length="9.03" shape="115.60,10.00 113.15,10.35 111.40,11.40 110.35,13.15 110.00,15.60"/>
    </edge>
    <edge id=":j1_6" function="internal">
        <lane id=":j1_6_0" index="0" allow="bus" speed="13.89" length="31.20" shape="115.60,10.00 84.40,10.00"/>
    </edge>
    <edge id=":j1_7" function="internal">
        <lane id=":j1_7_0" index="0" disallow="pedestrian" speed="8.81" length="9.76" shape="115.60,4.80 110.88,5.48 107.50,7.50 106.96,8.40"/>
    </edge>
    <edge id=":j1_8" function="internal">
        <lane id=":j1_8_0" index="0" disallow="pedestrian" speed="13.89" length="31.20" shape="115.60,4.80 84.40,4.80"/>
        <lane id=":j1_8_1" index="1" disallow="pedestrian" speed="13.89" length="31.20" shape="115.60,1.60 84.40,1.60"/>
    </edge>
    <edge id=":j1_15" function="internal">
        <lane id=":j1_15_0" index="0" disallow="pedestrian" speed="8.81" length="7.66" shape="106.96,8.40 105.47,10.88 104.80,15.60"/>
    </edge>
    <edge id=":j1_10" function="internal">
        <lane id=":j1_10_0" index="0" allow="bus" speed="13.89" length="31.20" shape="84.40,-10.00 115.60,-10.00"/>
    </edge>
    <edge id=":j1_11" function="internal">
        <lane id=":j1_11_0" index="0" disallow="pedestrian" speed="12.67" length="21.04" shape="84.40,-10.00 93.32,-8.40 99.70,-3.60 101.42,0.00"/>
    </edge>
    <edge id=":j1_12" function="internal">
        <lane id=":j1_12_0" index="0" disallow="pedestrian" speed="13.89" length="31.20" shape="84.40,-4.80 115.60,-4.80"/>
        <lane id=":j1_12_1" index="1" disallow="pedestrian" speed="13.89" length="31.20" shape="84.40,-1.60 115.60,-1.60"/>
    </edge>
    <edge id=":j1_14" function="internal">
        <lane id=":j1_14_0" index="0" disallow="pedestrian" speed="11.00" length="8.62" shape="84.40,-1.60 91.92,-0.52 92.80,0.00"/>
    </edge>
    <edge id=":j1_16" function="internal">
        <lane id=":j1_16_0" index="0" disallow="pedestrian" speed="12.67" length="16.15" shape="101.42,0.00 103.52,4.40 104.80,15.60"/>
    </edge>
    <edge id=":j1_17" function="internal">
        <lane id=":j1_17_0" index="0" disallow="pedestrian" speed="11.00" length="19.12" shape="92.80,0.00 97.30,2.70 100.52,8.08 101.60,15.60"/>
    </edge>
    <edge id=":j10_0" function="internal">
        <lane id=":j10_0_0" index="0" allow="bus" speed="6.51" length="9.03" shape="190.00,215.60 189.65,213.15 188.60,211.40 186.85,210.35 184.40,210.00"/>
    </edge>
    <edge id=":j10_1" function="internal">
        <lane id=":j10_1_0" index="0" allow="bus" speed="13.89" length="31.20" shape="190.00,215.60 190.00,184.40"/>
    </edge>
    <edge id=":j10_2" function="internal">
        <lane id=":j10_2_0" index="0" disallow="pedestrian" speed="12.22" length="17.29" shape="190.00,215.60 192.75,208.91 199.47,202.28 200.00,201.96"/>
    </edge>
    <edge id=":j10_3" function="internal">
        <lane id=":j10_3_0" index="0" disallow="pedestrian" speed="8.81" length="9.76" shape="195.20,215.60 194.53,210.88 192.50,207.50 191.60,206.96"/>
    </edge>
    <edge id=":j10_4" function="internal">
        <lane id=":j10_4_0" index="0" disallow="pedestrian" speed="13.89" length="31.20" shape="195.20,215.60 195.20,184.40"/>
        <lane id=":j10_4_1" index="1" disallow="pedestrian" speed="13.89" length="31.20" shape="198.40,215.60 198.40,184.40"/>
    </edge>
    <edge id=":j10_6" function="internal">
        <lane id=":j10_6_0" index="0" disallow="pedestrian" speed="11.00" length="8.62" shape="198.40,215.60 199.47,208.08 200.00,207.20"/>
    </edge>
    <edge id=":j10_28" function="internal">
        <lane id=":j10_28_0" index="0" disallow="pedestrian" speed="12.22" length="17.18" shape="200.00,201.96 207.85,197.22 215.60,195.20"/>
    </edge>
    <edge id=":j10_29" function="internal">
        <lane id=":j10_29_0" index="0" disallow="pedestrian" speed="8.81" length="7.66" shape="191.60,206.96 189.13,205.48 184.40,204.80"/>
    </edge>
    <edge id=":j10_30" function="internal">
        <lane id=":j10_30_0" index="0" disallow="pedestrian" speed="11.00" length="19.12" shape="200.00,207.20 202.70,202.70 208.08,199.48 215.60,198.40"/>
    </edge>
    <edge id=":j10_7" function="internal">
        <lane id=":j10_7_0" index="0" allow="bus" speed="6.51" length="9.03" shape="215.60,210.00 213.15,210.35 211.40,211.40 210.35,213.15 210.00,215.60"/>
    </edge>
    <edge id=":j10_8" function="internal">
        <lane id=":j10_8_0" index="0" allow="bus" speed="13.89" length="31.20" shape="215.60,210.00 184.40,210.00"/>
    </edge>
    <edge id=":j10_9" function="internal">
        <lane id=":j10_9_0" index="0" disallow="pedestrian" speed="12.22" length="17.29" shape="215.60,210.00 208.91,207.25 202.28,200.53 201.96,200.00"/>
    </edge>
    <edge id=":j10_10" function="internal">
        <lane id=":j10_10_0" index="0" disallow="pedestrian" speed="8.81" length="9.76" shape="215.60,204.80 210.88,205.47 207.50,207.50 206.96,208.40"/>
    </edge>
    <edge id=":j10_11" function="internal">
        <lane id=":j10_11_0" index="0" disallow="pedestrian" speed="13.89" length="31.20" shape="215.60,204.80 184.40,204.80"/>
        <lane id=":j10_11_1" index="1" disallow="pedestrian" speed="13.89" length="31.20" shape="215.60,201.60 184.40,201.60"/>
    </edge>
    <edge id=":j10_13" function="internal">
        <lane id=":j10_13_0" index="0" disallow="pedestrian" speed="11.00" length="8.62" shape="215.60,201.60 208.08,200.53 207.20,200.00"/>
    </edge>
    <edge id=":j10_31" function="internal">
        <lane id=":j10_31_0" index="0" disallow="pedestrian" speed="12.22" length="17.18" shape="201.96,200.00 197.22,192.15 195.20,184.40"/>
    </edge>
    <edge id=":j10_32" function="internal">
        <lane id=":j10_32_0" index="0" disallow="pedestrian" speed="8.81" length="7.66" shape="206.96,208.40 205.48,210.88 204.80,215.60"/>
    </edge>
    <edge id=":j10_33" function="internal">
        <lane id=":j10_33_0" index="0" disallow="pedestrian" speed="11.00" length="19.12" shape="207.20,200.00 202.70,197.30 199.48,191.92 198.40,184.40"/>
    </edge>
    <edge id=":j10_14" function="internal">
        <lane id=":j10_14_0" index="0" allow="bus" speed="6.51" length="9.03" shape="210.00,184.40 210.35,186.85 211.40,188.60 213.15,189.65 215.60,190.00"/>
    </edge>
    <edge id=":j10_15" function="internal">
        <lane id=":j10_15_0" index="0" allow="bus" speed="13.89" length="31.20" shape="210.00,184.40 210.00,215.60"/>
    </edge>
    <edge id=":j10_16" function="internal">
        <lane id=":j10_16_0" index="0" disallow="pedestrian" speed="12.22" length="17.29" shape="210.00,184.40 207.25,191.09 200.53,197.72 200.00,198.04"/>
    </edge>
    <edge id=":j10_17" function="internal">
        <lane id=":j10_17_0" index="0" disallow="pedestrian" speed="8.81" length="9.76" shape="204.80,184.40 205.47,189.12 207.50,192.50 208.40,193.04"/>
    </edge>
    <edge id=":j10_18" function="internal">
        <lane id=":j10_18_0" index="0" disallow="pedestrian" speed="13.89" length="31.20" shape="204.80,184.40 204.80,215.60"/>
        <lane id=":j10_18_1" index="1" disallow="pedestrian" speed="13.89" length="31.20" shape="201.60,184.40 201.60,215.60"/>
    </edge>
    <edge id=":j10_20" function="internal">
        <lane id=":j10_20_0" index="0" disallow="pedestrian" speed="11.00" length="8.62" shape="201.60,184.40 200.53,191.92 200.00,192.80"/>
    </edge>
    <edge id=":j10_34" function="internal">
        <lane id=":j10_34_0" index="0" disallow="pedestrian" speed="12.22" length="17.18" shape="200.00,198.04 192.15,202.78 184.40,204.80"/>
    </edge>
    <edge id=":j10_35" function="internal">
        <lane id=":j10_35_0" index="0" disallow="pedestrian" speed="8.81" length="7.66" shape="208.40,193.04 210.88,194.52 215.60,195.20"/>
    </edge>
    <edge id=":j10_36" function="internal">
        <lane id=":j10_36_0" index="0" disallow="pedestrian" speed="11.00" length="19.12" shape="200.00,192.80 197.30,197.30 191.92,200.52 184.40,201.60"/>
    </edge>
    <edge id=":j10_21" function="internal">
        <lane id=":j10_21_0" index="0" allow="bus" speed="6.51" length="9.03" shape="184.40,190.00 186.85,189.65 188.60,188.60 189.65,186.85 190.00,184.40"/>
    </edge>
    <edge id=":j10_22" function="internal">
        <lane id=":j10_22_0" index="0" allow="bus" speed="13.89" length="31.20" shape="184.40,190.00 215.60,190.00"/>
    </edge>
    <edge id=":j10_23" function="internal">
        <lane id=":j10_23_0" index="0" disallow="pedestrian" speed="12.22" length="17.29" shape="184.40,190.00 191.09,192.75 197.72,199.47 198.04,200.00"/>
    </edge>
    <edge id=":j10_24" function="internal">
        <lane id=":j10_24_0" index="0" disallow="pedestrian" speed="8.81" length="9.76" shape="184.40,195.20 189.12,194.53 192.50,192.50 193.04,191.60"/>
    </edge>
    <edge id=":j10_25" function="internal">
        <lane id=":j10_25_0" index="0" disallow="pedestrian" speed="13.89" length="31.20" shape="184.40,195.20 215.60,195.20"/>
        <lane id=":j10_25_1" index="1" disallow="pedestrian" speed="13.89" length="31.20" shape="184.40,198.40 215.60,198.40"/>
    </edge>
    <edge id=":j10_27" function="internal">
        <lane id=":j10_27_0" index="0" disallow="pedestrian" speed="11.00" length="8.62" shape="184.40,198.40 191.92,199.47 192.80,200.00"/>
    </edge>
    <edge id=":j10_37" function="internal">
        <lane id=":j10_37_0" index="0" disallow="pedestrian" speed="12.22" length="17.18" shape="198.04,200.00 202.78,207.85 204.80,215.60"/>
    </edge>
    <edge id=":j10_38" function="internal">
        <lane id=":j10_38_0" index="0" disallow="pedestrian" speed="8.81" length="7.66" shape="193.04,191.60 194.52,189.13 195.20,184.40"/>
    </edge>
    <edge id=":j10_39" function="internal">
        <lane id=":j10_39_0" index="0" disallow="pedestrian" speed="11.00" length="19.12" shape="192.80,200.00 197.30,202.70 200.52,208.08 201.60,215.60"/>
    </edge>
    <edge id=":j11_0" function="internal">
        <lane id=":j11_0_0" index="0" allow="bus" speed="6.51" length="9.03" shape="290.00,215.60 289.65,213.15 288.60,211.40 286.85,210.35 284.40,210.00"/>
    </edge>
    <edge id=":j11_1" function="internal">
        <lane id=":j11_1_0" index="0" allow="bus" speed="13.89" length="31.20" shape="290.00,215.60 290.00,184.40"/>
    </edge>
    <edge id=":j11_2" function="internal">
        <lane id=":j11_2_0" index="0" disallow="pedestrian" speed="8.81" length="9.76" shape="295.20,215.60 294.52,210.88 292.50,207.50 291.60,206.96"/>
    </edge>
    <edge id=":j11_3" function="internal">
        <lane id=":j11_3_0" index="0" disallow="pedestrian" speed="13.89" length="31.20" shape="295.20,215.60 295.20,184.40"/>
        <lane id=":j11_3_1" index="1" disallow="pedestrian" speed="13.89" length="31.20" shape="298.40,215.60 298.40,184.40"/>
    </edge>
    <edge id=":j11_15" function="internal">
        <lane id=":j11_15_0" index="0" disallow="pedestrian" speed="8.81" length="7.66" shape="291.60,206.96 289.13,205.48 284.40,204.80"/>
    </edge>
    <edge id=":j11_5" function="internal">
        <lane id=":j11_5_0" index="0" allow="bus" speed="13.89" length="31.20" shape="310.00,184.40 310.00,215.60"/>
    </edge>
    <edge id=":j11_6" function="internal">
        <lane id=":j11_6_0" index="0" disallow="pedestrian" speed="12.67" length="21.04" shape="310.00,184.40 308.40,193.33 303.60,199.70 300.00,201.42"/>
    </edge>
    <edge id=":j11_7" function="internal">
        <lane id=":j11_7_0" index="0" disallow="pedestrian" speed="13.89" length="31.20" shape="304.80,184.40 304.80,215.60"/>
        <lane id=":j11_7_1" index="1" disallow="pedestrian" speed="13.89" length="31.20" shape="301.60,184.40 301.60,215.60"/>
    </edge>
    <edge id=":j11_9" function="internal">
        <lane id=":j11_9_0" index="0" disallow="pedestrian" speed="11.00" length="8.62" shape="301.60,184.40 300.52,191.92 300.00,192.80"/>
    </edge>
    <edge id=":j11_16" function="internal">
        <lane id=":j11_16_0" index="0" disallow="pedestrian" speed="12.67" length="16.15" shape="300.00,201.42 295.60,203.53 284.40,204.80"/>
    </edge>
    <edge id=":j11_17" function="internal">
        <lane id=":j11_17_0" index="0" disallow="pedestrian" speed="11.00" length="19.12" shape="300.00,192.80 297.30,197.30 291.93,200.52 284.40,201.60"/>
    </edge>
    <edge id=":j11_10" function="internal">
        <lane id=":j11_10_0" index="0" allow="bus" speed="6.51" length="9.03" shape="284.40,190.00 286.85,189.65 288.60,188.60 289.65,186.85 290.00,184.40"/>
    </edge>
    <edge id=":j11_11" function="internal">
        <lane id=":j11_11_0" index="0" disallow="pedestrian" speed="12.67" length="37.19" shape="284.40,190.00 293.32,191.60 299.70,196.40 303.53,204.40 304.80,215.60"/>
    </edge>
    <edge id=":j11_12" function="internal">
        <lane id=":j11_12_0" index="0" disallow="pedestrian" speed="8.81" length="17.42" shape="284.40,195.20 289.12,194.53 292.50,192.50 294.52,189.13 295.20,184.40"/>
    </edge>
    <edge id=":j11_13" function="internal">
        <lane id=":j11_13_0" index="0" disallow="pedestrian" speed="9.96" length="22.58" shape="284.40,198.40 290.52,197.53 294.90,194.90 297.52,190.53 298.40,184.40"/>
    </edge>
    <edge id=":j11_14" function="internal">
        <lane id=":j11_14_0" index="0" disallow="pedestrian" speed="11.00" length="27.74" shape="284.40,198.40 291.93,199.47 297.30,202.70 300.52,208.08 301.60,215.60"/>
    </edge>
    <edge id=":j12_0" function="internal">
        <lane id=":j12_0_0" index="0" allow="bus" speed="12.28" length="34.84" shape="11.60,310.00 2.15,308.65 -4.60,304.60 -8.65,297.85 -10.00,288.40"/>
    </edge>
    <edge id=":j12_1" function="internal">
        <lane id=":j12_1_0" index="0" disallow="pedestrian" speed="10.75" length="26.45" shape="11.60,304.80 4.42,303.77 -0.70,300.70 -3.77,295.57 -4.80,288.40"/>
    </edge>
    <edge id=":j12_2" function="internal">
        <lane id=":j12_2_0" index="0" disallow="pedestrian" speed="9.69" length="21.29" shape="11.60,301.60 5.83,300.77 1.70,298.30 -0.77,294.17 -1.60,288.40"/>
    </edge>
    <edge id=":j12_3" function="internal">
        <lane id=":j12_3_0" index="0" allow="bus" speed="3.90" length="2.58" shape="10.00,288.40 10.10,289.10 10.40,289.60 10.90,289.90 11.60,290.00"/>
    </edge>
    <edge id=":j12_4" function="internal">
        <lane id=":j12_4_0" index="0" disallow="pedestrian" speed="7.11" length="10.97" shape="4.80,288.40 5.23,291.37 6.50,293.50 8.63,294.77 11.60,295.20"/>
    </edge>
    <edge id=":j12_5" function="internal">
        <lane id=":j12_5_0" index="0" disallow="pedestrian" speed="8.50" length="16.13" shape="1.60,288.40 2.23,292.77 4.10,295.90 7.23,297.77 11.60,298.40"/>
    </edge>
    <edge id=":j13_0" function="internal">
        <lane id=":j13_0_0" index="0" allow="bus" speed="13.89" length="31.20" shape="115.60,310.00 84.40,310.00"/>
    </edge>
    <edge id=":j13_1" function="internal">
        <lane id=":j13_1_0" index="0" disallow="pedestrian" speed="12.67" length="21.04" shape="115.60,310.00 106.68,308.40 100.30,303.60 98.58,300.00"/>
    </edge>
    <edge id=":j13_2" function="internal">
        <lane id=":j13_2_0" index="0" disallow="pedestrian" speed="13.89" length="31.20" shape="115.60,304.80 84.40,304.80"/>
        <lane id=":j13_2_1" index="1" disallow="pedestrian" speed="13.89" length="31.20" shape="115.60,301.60 84.40,301.60"/>
    </edge>
    <edge id=":j13_4" function="internal">
        <lane id=":j13_4_0" index="0" disallow="pedestrian" speed="11.00" length="8.62" shape="115.60,301.60 108.08,300.52 107.20,300.00"/>
    </edge>
    <edge id=":j13_15" function="internal">
        <lane id=":j13_15_0" index="0" disallow="pedestrian" speed="12.67" length="16.15" shape="98.58,300.00 96.48,295.60 95.20,284.40"/>
    </edge>
    <edge id=":j13_16" function="internal">
        <lane id=":j13_16_0" index="0" disallow="pedestrian" speed="11.00" length="19.12" shape="107.20,300.00 102.70,297.30 99.48,291.93 98.40,284.40"/>
    </edge>
    <edge id=":j13_5" function="internal">
        <lane id=":j13_5_0" index="0" allow="bus" speed="6.51" length="9.03" shape="110.00,284.40 110.35,286.85 111.40,288.60 113.15,289.65 115.60,290.00"/>
    </edge>
    <edge id=":j13_6" function="internal">
        <lane id=":j13_6_0" index="0" disallow="pedestrian" speed="12.67" length="37.19" shape="110.00,284.40 108.40,293.32 103.60,299.70 95.60,303.53 84.40,304.80"/>
    </edge>
    <edge id=":j13_7" function="internal">
        <lane id=":j13_7_0" index="0" disallow="pedestrian" speed="8.81" length="17.42" shape="104.80,284.40 105.47,289.12 107.50,292.50 110.88,294.52 115.60,295.20"/>
    </edge>
    <edge id=":j13_8" function="internal">
        <lane id=":j13_8_0" index="0" disallow="pedestrian" speed="9.96" length="22.58" shape="101.60,284.40 102.47,290.52 105.10,294.90 109.47,297.52 115.60,298.40"/>
    </edge>
    <edge id=":j13_9" function="internal">
        <lane id=":j13_9_0" index="0" disallow="pedestrian" speed="11.00" length="27.74" shape="101.60,284.40 100.53,291.93 97.30,297.30 91.92,300.52 84.40,301.60"/>
    </edge>
    <edge id=":j13_10" function="internal">
        <lane id=":j13_10_0" index="0" allow="bus" speed="6.51" length="9.03" shape="84.40,290.00 86.85,289.65 88.60,288.60 89.65,286.85 90.00,284.40"/>
    </edge>
    <edge id=":j13_11" function="internal">
        <lane id=":j13_11_0" index="0" allow="bus" speed="13.89" length="31.20" shape="84.40,290.00 115.60,290.00"/>
    </edge>
    <edge id=":j13_12" function="internal">
        <lane id=":j13_12_0" index="0" disallow="pedestrian" speed="8.81" length="9.76" shape="84.40,295.20 89.13,294.52 92.50,292.50 93.04,291.60"/>
    </edge>
    <edge id=":j13_13" function="internal">
        <lane id=":j13_13_0" index="0" disallow="pedestrian" speed="13.89" length="31.20" shape="84.40,295.20 115.60,295.20"/>
        <lane id=":j13_13_1" index="1" disallow="pedestrian" speed="13.89" length="31.20" shape="84.40,298.40 115.60,298.40"/>
    </edge>
    <edge id=":j13_17" function="internal">
        <lane id=":j13_17_0" index="0" disallow="pedestrian" speed="8.81" length="7.66" shape="93.04,291.60 94.53,289.13 95.20,284.40"/>
    </edge>
    <edge id=":j14_0" function="internal">
        <lane id=":j14_0_0" index="0" allow="bus" speed="13.89" length="31.20" shape="215.60,310.00 184.40,310.00"/>
    </edge>
    <edge id=":j14_1" function="internal">
        <lane id=":j14_1_0" index="0" disallow="pedestrian" speed="12.67" length="21.04" shape="215.60,310.00 206.67,308.40 200.30,303.60 198.58,300.00"/>
    </edge>
    <edge id=":j14_2" function="internal">
        <lane id=":j14_2_0" index="0" disallow="pedestrian" speed="13.89" length="31.20" shape="215.60,304.80 184.40,304.80"/>
        <lane id=":j14_2_1" index="1" disallow="pedestrian" speed="13.89" length="31.20" shape="215.60,301.60 184.40,301.60"/>
    </edge>
    <edge id=":j14_4" function="internal">
        <lane id=":j14_4_0" index="0" disallow="pedestrian" speed="11.00" length="8.62" shape="215.60,301.60 208.08,300.52 207.20,300.00"/>
    </edge>
    <edge id=":j14_15" function="internal">
        <lane id=":j14_15_0" index="0" disallow="pedestrian" speed="12.67" length="16.15" shape="198.58,300.00 196.47,295.60 195.20,284.40"/>
    </edge>
    <edge id=":j14_16" function="internal">
        <lane id=":j14_16_0" index="0" disallow="pedestrian" speed="11.00" length="19.12" shape="207.20,300.00 202.70,297.30 199.48,291.93 198.40,284.40"/>
    </edge>
    <edge id=":j14_5" function="internal">
        <lane id=":j14_5_0" index="0" allow="bus" speed="6.51" length="9.03" shape="210.00,284.40 210.35,286.85 211.40,288.60 213.15,289.65 215.60,290.00"/>
    </edge>
    <edge id=":j14_6" function="internal">
        <lane id=":j14_6_0" index="0" disallow="pedestrian" speed="12.67" length="37.19" shape="210.00,284.40 208.40,293.32 203.60,299.70 195.60,303.53 184.40,304.80"/>
    </edge>
    <edge id=":j14_7" function="internal">
        <lane id=":j14_7_0" index="0" disallow="pedestrian" speed="8.81" length="17.42" shape="204.80,284.40 205.47,289.12 207.50,292.50 210.88,294.52 215.60,295.20"/>
    </edge>
    <edge id=":j14_8" function="internal">
        <lane id=":j14_8_0" index="0" disallow="pedestrian" speed="9.96" length="22.58" shape="201.60,284.40 202.47,290.52 205.10,294.90 209.47,297.52 215.60,298.40"/>
    </edge>
    <edge id=":j14_9" function="internal">
        <lane id=":j14_9_0" index="0" disallow="pedestrian" speed="11.00" length="27.74" shape="201.60,284.40 200.53,291.93 197.30,297.30 191.92,300.52 184.40,301.60"/>
    </edge>
    <edge id=":j14_10" function="internal">
        <lane id=":j14_10_0" index="0" allow="bus" speed="6.51" length="9.03" shape="184.40,290.00 186.85,289.65 188.60,288.60 189.65,286.85 190.00,284.40"/>
    </edge>
    <edge id=":j14_11" function="internal">
        <lane id=":j14_11_0" index="0" allow="bus" speed="13.89" length="31.20" shape="184.40,290.00 215.60,290.00"/>
    </edge>
    <edge id=":j14_12" function="internal">
        <lane id=":j14_12_0" index="0" disallow="pedestrian" speed="8.81" length="9.76" shape="184.40,295.20 189.12,294.52 192.50,292.50 193.04,291.60"/>
    </edge>
    <edge id=":j14_13" function="internal">
        <lane id=":j14_13_0" index="0" disallow="pedestrian" speed="13.89" length="31.20" shape="184.40,295.20 215.60,295.20"/>
        <lane id=":j14_13_1" index="1" disallow="pedestrian" speed="13.89" length="31.20" shape="184.40,298.40 215.60,298.40"/>
    </edge>
    <edge id=":j14_17" function="internal">
        <lane id=":j14_17_0" index="0" disallow="pedestrian" speed="8.81" length="7.66" shape="193.04,291.60 194.52,289.13 195.20,284.40"/>
    </edge>
    <edge id=":j15_0" function="internal">
        <lane id=":j15_0_0" index="0" allow="bus" speed="12.28" length="34.84" shape="310.00,288.40 308.65,297.85 304.60,304.60 297.85,308.65 288.40,310.00"/>
    </edge>
    <edge id=":j15_1" function="internal">
        <lane id=":j15_1_0" index="0" disallow="pedestrian" speed="10.75" length="26.45" shape="304.80,288.40 303.77,295.57 300.70,300.70 295.58,303.78 288.40,304.80"/>
    </edge>
    <edge id=":j15_2" function="internal">
        <lane id=":j15_2_0" index="0" disallow="pedestrian" speed="9.69" length="21.29" shape="301.60,288.40 300.77,294.18 298.30,298.30 294.18,300.77 288.40,301.60"/>
    </edge>
    <edge id=":j15_3" function="internal">
        <lane id=":j15_3_0" index="0" allow="bus" speed="3.90" length="2.58" shape="288.40,290.00 289.10,289.90 289.60,289.60 289.90,289.10 290.00,288.40"/>
    </edge>
    <edge id=":j15_4" function="internal">
        <lane id=":j15_4_0" index="0" disallow="pedestrian" speed="7.10" length="10.97" shape="288.40,295.20 291.37,294.77 293.50,293.50 294.77,291.38 295.20,288.40"/>
    </edge>
    <edge id=":j15_5" function="internal">
        <lane id=":j15_5_0" index="0" disallow="pedestrian" speed="8.49" length="16.13" shape="288.40,298.40 292.77,297.77 295.90,295.90 297.77,292.77 298.40,288.40"/>
    </edge>
    <edge id=":j2_0" function="internal">
        <lane id=":j2_0_0" index="0" allow="bus" speed="6.51" length="9.03" shape="190.00,15.60 189.65,13.15 188.60,11.40 186.85,10.35 184.40,10.00"/>
    </edge>
    <edge id=":j2_1" function="internal">
        <lane id=":j2_1_0" index="0" disallow="pedestrian" speed="12.67" length="37.19" shape="190.00,15.60 191.60,6.68 196.40,0.30 204.40,-3.52 215.60,-4.80"/>
    </edge>
    <edge id=":j2_2" function="internal">
        <lane id=":j2_2_0" index="0" disallow="pedestrian" speed="8.81" length="17.42" shape="195.20,15.60 194.53,10.88 192.50,7.50 189.13,5.47 184.40,4.80"/>
    </edge>
    <edge id=":j2_3" function="internal">
        <lane id=":j2_3_0" index="0" disallow="pedestrian" speed="9.96" length="22.58" shape="198.40,15.60 197.53,9.48 194.90,5.10 190.53,2.47 184.40,1.60"/>
    </edge>
    <edge id=":j2_4" function="internal">
        <lane id=":j2_4_0" index="0" disallow="pedestrian" speed="11.00" length="27.74" shape="198.40,15.60 199.47,8.08 202.70,2.70 208.08,-0.52 215.60,-1.60"/>
    </edge>
    <edge id=":j2_5" function="internal">
        <lane id=":j2_5_0" index="0" allow="bus" speed="6.51" length="9.03" shape="215.60,10.00 213.15,10.35 211.40,11.40 210.35,13.15 210.00,15.60"/>
    </edge>
    <edge id=":j2_6" function="internal">
        <lane id=":j2_6_0" index="0" allow="bus" speed="13.89" length="31.20" shape="215.60,10.00 184.40,10.00"/>
    </edge>
    <edge id=":j2_7" function="internal">
        <lane id=":j2_7_0" index="0" disallow="pedestrian" speed="8.81" length="9.76" shape="215.60,4.80 210.88,5.48 207.50,7.50 206.96,8.40"/>
    </edge>
    <edge id=":j2_8" function="internal">
        <lane id=":j2_8_0" index="0" disallow="pedestrian" speed="13.89" length="31.20" shape="215.60,4.80 184.40,4.80"/>
        <lane id=":j2_8_1" index="1" disallow="pedestrian" speed="13.89" length="31.20" shape="215.60,1.60 184.40,1.60"/>
    </edge>
    <edge id=":j2_15" function="internal">
        <lane id=":j2_15_0" index="0" disallow="pedestrian" speed="8.81" length="7.66" shape="206.96,8.40 205.48,10.88 204.80,15.60"/>
    </edge>
    <edge id=":j2_10" function="internal">
        <lane id=":j2_10_0" index="0" allow="bus" speed="13.89" length="31.20" shape="184.40,-10.00 215.60,-10.00"/>
    </edge>
    <edge id=":j2_11" function="internal">
        <lane id=":j2_11_0" index="0" disallow="pedestrian" speed="12.67" length="21.04" shape="184.40,-10.00 193.33,-8.40 199.70,-3.60 201.42,0.00"/>
    </edge>
    <edge id=":j2_12" function="internal">
        <lane id=":j2_12_0" index="0" disallow="pedestrian" speed="13.89" length="31.20" shape="184.40,-4.80 215.60,-4.80"/>