<?xml version="1.0" encoding="UTF-8"?>

<!-- generated on Mon Jan 27 15:29:15 2020 by Eclipse SUMO activitygen Version 1.4.0
<configuration xmlns:xsi="http://www.w3.org/2001/XMLSchema-instance" xsi:noNamespaceSchemaLocation="http://sumo.dlr.de/xsd/activitygenConfiguration.xsd">

    <input>
        <net-file value="cooperH.net.xml"/>
        <stat-file value="cooperH.stat.xml"/>
    </input>

    <output>
        <output-file value="cooperH.trips.rou.xml"/>
    </output>

    <random_number>
        <random value="true"/>
    </random_number>

</configuration>
-->

<routes xmlns:xsi="http://www.w3.org/2001/XMLSchema-instance" xsi:noNamespaceSchemaLocation="http://sumo.dlr.de/xsd/routes_file.xsd">
    <vType id="default" vClass="passenger" color="red"/>
    <vType id="random" vClass="passenger" color="blue"/>
    <vType id="bus" vClass="bus" color="green"/>

    <trip id="randUni79:1" type="random" depart="579.00" departPos="4.38" arrivalPos="36.31" arrivalSpeed="0.00" from="e18" to="-e22"/>
    <trip id="randUni65:1" type="random" depart="1745.00" departPos="8.94" arrivalPos="48.88" arrivalSpeed="0.00" from="-e21" to="-e24"/>
    <trip id="randUni57:1" type="random" depart="1807.00" departPos="20.93" arrivalPos="7.21" arrivalSpeed="0.00" from="e24" to="e15"/>
    <trip id="randUni413:1" type="random" depart="1912.00" departPos="59.48" arrivalPos="53.65" arrivalSpeed="0.00" from="-e16" to="-e15"/>
    <trip id="randUni269:1" type="random" depart="2058.00" departPos="67.42" arrivalPos="71.14" arrivalSpeed="0.00" from="-e8" to="-e4"/>
    <trip id="randUni156:1" type="random" depart="2310.00" departPos="58.66" arrivalPos="14.89" arrivalSpeed="0.00" from="-e20" to="-e9"/>
    <trip id="randUni293:1" type="random" depart="2944.00" departPos="1.93" arrivalPos="47.66" arrivalSpeed="0.00" from="e8" to="-e5"/>
    <trip id="randUni446:1" type="random" depart="3226.00" departPos="79.57" arrivalPos="15.08" arrivalSpeed="0.00" from="e1" to="e8"/>
    <trip id="randUni54:1" type="random" depart="3904.00" departPos="62.45" arrivalPos="66.60" arrivalSpeed="0.00" from="e12" to="-e18"/>
    <trip id="randUni158:1" type="random" depart="4100.00" departPos="10.99" arrivalPos="66.19" arrivalSpeed="0.00" from="e6" to="-e20"/>
    <trip id="randUni226:1" type="random" depart="4277.00" departPos="71.80" arrivalPos="39.27" arrivalSpeed="0.00" from="-e8" to="e10"/>
    <trip id="randUni371:1" type="random" depart="4815.00" departPos="21.02" arrivalPos="9.37" arrivalSpeed="0.00" from="e17" to="e1"/>
    <trip id="randUni361:1" type="random" depart="5110.00" departPos="48.86" arrivalPos="47.13" arrivalSpeed="0.00" from="e14" to="e9"/>
    <trip id="randUni77:1" type="random" depart="5315.00" departPos="40.55" arrivalPos="74.47" arrivalSpeed="0.00" from="e2" to="-e19"/>
    <trip id="randUni193:1" type="random" depart="6213.00" departPos="18.31" arrivalPos="43.58" arrivalSpeed="0.00" from="e4" to="-e7"/>
    <trip id="randUni356:1" type="random" depart="7494.00" departPos="16.08" arrivalPos="44.77" arrivalSpeed="0.00" from="e15" to="-e6"/>
    <trip id="randUni147:1" type="random" depart="7883.00" departPos="75.94" arrivalPos="79.66" arrivalSpeed="0.00" from="-e1" to="e7"/>
    <trip id="randUni300:1" type="random" depart="8208.00" departPos="25.75" arrivalPos="71.99" arrivalSpeed="0.00" from="e5" to="e5"/>
    <trip id="randUni339:1" type="random" depart="9349.00" departPos="49.79" arrivalPos="35.37" arrivalSpeed="0.00" from="-e8" to="-e16"/>
    <trip id="randUni144:1" type="random" depart="9358.00" departPos="71.80" arrivalPos="77.62" arrivalSpeed="0.00" from="e14" to="-e9"/>
    <trip id="randUni161:1" type="random" depart="9590.00" departPos="53.27" arrivalPos="20.72" arrivalSpeed="0.00" from="-e6" to="-e15"/>
    <trip id="randUni195:1" type="random" depart="9797.00" departPos="2.22" arrivalPos="41.93" arrivalSpeed="0.00" from="-e7" to="e13"/>
    <trip id="randUni87:1" type="random" depart="9967.00" departPos="11.40" arrivalPos="33.72" arrivalSpeed="0.00" from="e20" to="-e12"/>
    <trip id="randUni210:1" type="random" depart="11193.00" departPos="29.00" arrivalPos="73.01" arrivalSpeed="0.00" from="-e5" to="e20"/>
    <trip id="randUni75:1" type="random" depart="11470.00" departPos="58.61" arrivalPos="35.16" arrivalSpeed="0.00" from="e9" to="-e21"/>
    <trip id="randUni397:1" type="random" depart="12397.00" departPos="49.25" arrivalPos="15.46" arrivalSpeed="0.00" from="e6" to="-e23"/>
    <trip id="randUni412:1" type="random" depart="12857.00" departPos="24.07" arrivalPos="72.14" arrivalSpeed="0.00" from="e19" to="e3"/>
    <trip id="randUni174:1" type="random" depart="12907.00" departPos="26.13" arrivalPos="8.89" arrivalSpeed="0.00" from="-e18" to="-e5"/>
    <trip id="randUni33:1" type="random" depart="13521.00" departPos="70.12" arrivalPos="68.97" arrivalSpeed="0.00" from="-e10" to="-e16"/>
    <trip id="randUni402:1" type="random" depart="13650.00" departPos="48.47" arrivalPos="26.05" arrivalSpeed="0.00" from="-e10" to="-e9"/>
    <trip id="randUni444:1" type="random" depart="14325.00" departPos="76.71" arrivalPos="35.13" arrivalSpeed="0.00" from="e14" to="-e1"/>
    <trip id="randUni442:1" type="random" depart="14362.00" departPos="55.24" arrivalPos="61.37" arrivalSpeed="0.00" from="e7" to="e19"/>
    <trip id="randUni341:1" type="random" depart="16244.00" departPos="41.80" arrivalPos="58.78" arrivalSpeed="0.00" from="-e15" to="-e11"/>
    <trip id="randUni329:1" type="random" depart="18012.00" departPos="29.25" arrivalPos="67.69" arrivalSpeed="0.00" from="e21" to="e13"/>
    <trip id="randUni194:1" type="random" depart="18070.00" departPos="5.83" arrivalPos="49.33" arrivalSpeed="0.00" from="e18" to="-e16"/>
    <trip id="randUni422:1" type="random" depart="18127.00" departPos="48.25" arrivalPos="9.05" arrivalSpeed="0.00" from="e3" to="-e6"/>
    <trip id="randUni153:1" type="random" depart="18610.00" departPos="64.72" arrivalPos="17.96" arrivalSpeed="0.00" from="-e7" to="-e24"/>
    <trip id="randUni420:1" type="random" depart="18873.00" departPos="57.86" arrivalPos="18.61" arrivalSpeed="0.00" from="e20" to="-e14"/>
    <trip id="randUni270:1" type="random" depart="18902.00" departPos="39.38" arrivalPos="14.55" arrivalSpeed="0.00" from="-e22" to="e4"/>
    <trip id="randUni235:1" type="random" depart="19107.00" departPos="44.16" arrivalPos="21.70" arrivalSpeed="0.00" from="-e19" to="e9"/>
    <trip id="randUni350:1" type="random" depart="20004.00" departPos="70.31" arrivalPos="47.15" arrivalSpeed="0.00" from="-e23" to="e9"/>
    <trip id="randUni401:1" type="random" depart="20306.00" departPos="27.85" arrivalPos="55.35" arrivalSpeed="0.00" from="e1" to="-e7"/>
    <trip id="randUni381:1" type="random" depart="20498.00" departPos="55.28" arrivalPos="24.86" arrivalSpeed="0.00" from="e15" to="e9"/>
    <trip id="randUni151:1" type="random" depart="21316.00" departPos="68.05" arrivalPos="13.08" arrivalSpeed="0.00" from="-e6" to="e24"/>
    <trip id="randUni349:1" type="random" depart="21985.00" departPos="73.85" arrivalPos="68.19" arrivalSpeed="0.00" from="-e17" to="-e15"/>
    <trip id="randUni173:1" type="random" depart="22340.00" departPos="50.20" arrivalPos="62.60" arrivalSpeed="0.00" from="-e4" to="e15"/>
    <trip id="randUni316:1" type="random" depart="22629.00" departPos="6.23" arrivalPos="59.95" arrivalSpeed="0.00" from="e16" to="-e10"/>
    <trip id="randUni28:1" type="random" depart="22971.00" departPos="24.41" arrivalPos="69.22" arrivalSpeed="0.00" from="e15" to="e21"/>
    <trip id="randUni31:1" type="random" depart="23597.00" departPos="17.38" arrivalPos="27.39" arrivalSpeed="0.00" from="-e24" to="e22"/>
    <trip id="randUni453:1" type="random" depart="24003.00" departPos="22.11" arrivalPos="32.28" arrivalSpeed="0.00" from="-e1" to="e23"/>
    <trip id="randUni299:1" type="random" depart="24179.00" departPos="46.24" arrivalPos="48.55" arrivalSpeed="0.00" from="-e15" to="-e23"/>
    <trip id="randUni435:1" type="random" depart="24493.00" departPos="18.60" arrivalPos="59.58" arrivalSpeed="0.00" from="e4" to="-e6"/>
    <trip id="randUni105:1" type="random" depart="25141.00" departPos="40.00" arrivalPos="21.96" arrivalSpeed="0.00" from="e16" to="e5"/>
    <trip id="randUni149:1" type="random" depart="25744.00" departPos="38.73" arrivalPos="12.24" arrivalSpeed="0.00" from="-e15" to="e19"/>
    <trip id="randUni30:1" type="random" depart="25754.00" departPos="1.46" arrivalPos="52.59" arrivalSpeed="0.00" from="-e14" to="e10"/>
    <trip id="randUni159:1" type="random" depart="26946.00" departPos="11.65" arrivalPos="63.72" arrivalSpeed="0.00" from="e2" to="e10"/>
    <trip id="randUni447:1" type="random" depart="27361.00" departPos="50.33" arrivalPos="23.03" arrivalSpeed="0.00" from="-e20" to="-e14"/>
    <trip id="randUni9:1" type="random" depart="27676.00" departPos="78.58" arrivalPos="35.93" arrivalSpeed="0.00" from="e23" to="-e9"/>
    <trip id="randUni19:1" type="random" depart="27930.00" departPos="15.87" arrivalPos="67.43" arrivalSpeed="0.00" from="-e16" to="-e21"/>
    <trip id="randUni109:1" type="random" depart="28574.00" departPos="10.44" arrivalPos="20.43" arrivalSpeed="0.00" from="e22" to="-e23"/>
    <trip id="randUni348:1" type="random" depart="28621.00" departPos="73.96" arrivalPos="11.49" arrivalSpeed="0.00" from="-e3" to="-e4"/>
    <trip id="h2699c1:1" type="default" depart="29000.00" departPos="53.07" arrivalPos="13.59" arrivalSpeed="0.00" from="e14" to="-e8"/>
    <trip id="h5779c1:1" type="default" depart="29165.00" departPos="0.09" arrivalPos="39.18" arrivalSpeed="0.00" from="-e15" to="e11"/>
    <trip id="h6260c1:1" type="default" depart="29374.00" departPos="17.99" arrivalPos="2.74" arrivalSpeed="0.00" from="e18" to="-e15"/>
    <trip id="h6124c1:1" type="default" depart="29497.00" departPos="2.51" arrivalPos="52.98" arrivalSpeed="0.00" from="e18" to="-e21"/>
    <trip id="h777c1:1" type="default" depart="29567.00" departPos="53.44" arrivalPos="47.66" arrivalSpeed="0.00" from="-e1" to="e16"/>
    <trip id="randUni202:1" type="random" depart="29598.00" departPos="20.13" arrivalPos="33.53" arrivalSpeed="0.00" from="e18" to="e9"/>
    <trip id="h4494c1:1" type="default" depart="29610.00" departPos="8.54" arrivalPos="12.10" arrivalSpeed="0.00" from="-e14" to="e19"/>
    <trip id="h7036c1:1" type="default" depart="29658.00" departPos="50.59" arrivalPos="55.67" arrivalSpeed="0.00" from="-e10" to="-e21"/>
    <trip id="h2091c1:1" type="default" depart="29821.00" departPos="47.56" arrivalPos="10.36" arrivalSpeed="0.00" from="-e2" to="e11"/>
    <trip id="randUni369:1" type="random" depart="29947.00" departPos="68.75" arrivalPos="70.43" arrivalSpeed="0.00" from="-e7" to="e20"/>
    <trip id="h5584c1:1" type="default" depart="29985.00" departPos="52.02" arrivalPos="1.65" arrivalSpeed="0.00" from="e17" to="e20"/>
    <trip id="h7021c1:1" type="default" depart="30146.00" departPos="63.41" arrivalPos="21.86" arrivalSpeed="0.00" from="-e10" to="e24"/>
    <trip id="h1189c1:1" type="default" depart="30276.00" departPos="52.70" arrivalPos="62.69" arrivalSpeed="0.00" from="-e19" to="-e22"/>
    <trip id="h777c1:2" type="default" depart="30380.00" departPos="47.66" arrivalPos="53.44" arrivalSpeed="0.00" from="e16" to="-e1"/>
    <trip id="randUni430:1" type="random" depart="30386.00" departPos="61.61" arrivalPos="18.87" arrivalSpeed="0.00" from="e16" to="-e20"/>
    <trip id="randUni128:1" type="random" depart="30571.00" departPos="10.02" arrivalPos="71.61" arrivalSpeed="0.00" from="e12" to="-e3"/>
    <trip id="h4823c1:1" type="default" depart="30848.00" departPos="74.37" arrivalPos="13.18" arrivalSpeed="0.00" from="-e14" to="-e14"/>
    <trip id="h7495c1:1" type="default" depart="30858.00" departPos="37.45" arrivalPos="72.46" arrivalSpeed="0.00" from="-e10" to="-e8"/>
    <trip id="randUni208:1" type="random" depart="31043.00" departPos="54.82" arrivalPos="57.13" arrivalSpeed="0.00" from="e19" to="e13"/>
    <trip id="h2279c1:1" type="default" depart="31258.00" departPos="66.64" arrivalPos="6.43" arrivalSpeed="0.00" from="-e2" to="e24"/>
    <trip id="h7048c1:1" type="default" depart="31295.00" departPos="18.78" arrivalPos="0.99" arrivalSpeed="0.00" from="-e10" to="-e14"/>
    <trip id="h1844c1:1" type="default" depart="31363.00" departPos="77.90" arrivalPos="65.81" arrivalSpeed="0.00" from="-e2" to="-e17"/>
    <trip id="randUni272:1" type="random" depart="31603.00" departPos="8.76" arrivalPos="11.87" arrivalSpeed="0.00" from="e24" to="e12"/>
    <trip id="h6870c1:1" type="default" depart="31994.00" departPos="67.55" arrivalPos="17.93" arrivalSpeed="0.00" from="-e10" to="e12"/>
    <trip id="h5373c1:1" type="default" depart="32038.00" departPos="10.20" arrivalPos="71.86" arrivalSpeed="0.00" from="e17" to="-e4"/>
    <trip id="randUni123:1" type="random" depart="32327.00" departPos="75.57" arrivalPos="44.00" arrivalSpeed="0.00" from="e19" to="e19"/>
    <trip id="h2192c1:1" type="default" depart="32340.00" departPos="75.91" arrivalPos="23.92" arrivalSpeed="0.00" from="-e2" to="e12"/>
    <trip id="h5288c1:1" type="default" depart="32563.00" departPos="20.35" arrivalPos="48.65" arrivalSpeed="0.00" from="e17" to="-e8"/>
    <trip id="randUni20:1" type="random" depart="32567.00" departPos="46.42" arrivalPos="77.05" arrivalSpeed="0.00" from="e7" to="e10"/>
    <trip id="randUni137:1" type="random" depart="32894.00" departPos="72.01" arrivalPos="45.71" arrivalSpeed="0.00" from="e2" to="e2"/>
    <trip id="h8704c1:1" type="default" depart="33174.00" departPos="43.19" arrivalPos="45.40" arrivalSpeed="0.00" from="e24" to="-e23"/>
    <trip id="h3918c1:1" type="default" depart="33443.00" departPos="34.97" arrivalPos="9.40" arrivalSpeed="0.00" from="-e14" to="e17"/>
    <trip id="h8471c1:1" type="default" depart="33700.00" departPos="43.05" arrivalPos="12.94" arrivalSpeed="0.00" from="e24" to="e20"/>
    <trip id="h7879c1:1" type="default" depart="33766.00" departPos="3.76" arrivalPos="4.55" arrivalSpeed="0.00" from="-e9" to="-e17"/>
    <trip id="h7338c1:1" type="default" depart="34078.00" departPos="19.22" arrivalPos="28.67" arrivalSpeed="0.00" from="-e10" to="-e24"/>
    <trip id="randUni111:1" type="random" depart="34089.00" departPos="4.82" arrivalPos="63.83" arrivalSpeed="0.00" from="-e2" to="e10"/>
    <trip id="randUni344:1" type="random" depart="34092.00" departPos="36.48" arrivalPos="5.59" arrivalSpeed="0.00" from="-e22" to="-e21"/>
    <trip id="h4144c1:1" type="default" depart="34205.00" departPos="54.89" arrivalPos="49.46" arrivalSpeed="0.00" from="-e14" to="-e2"/>
    <trip id="h2061c1:1" type="default" depart="34208.00" departPos="8.34" arrivalPos="18.55" arrivalSpeed="0.00" from="-e2" to="e17"/>
    <trip id="h2192c1:2" type="default" depart="34376.00" departPos="23.92" arrivalPos="75.91" arrivalSpeed="0.00" from="e12" to="-e2"/>
    <trip id="h7789c1:1" type="default" depart="34435.00" departPos="56.52" arrivalPos="43.69" arrivalSpeed="0.00" from="-e9" to="e16"/>
    <trip id="h3389c1:1" type="default" depart="34454.00" departPos="61.08" arrivalPos="19.85" arrivalSpeed="0.00" from="-e3" to="e15"/>
    <trip id="randUni101:1" type="random" depart="34503.00" departPos="63.48" arrivalPos="38.44" arrivalSpeed="0.00" from="e19" to="-e12"/>
    <trip id="h5948c1:1" type="default" depart="34624.00" departPos="22.01" arrivalPos="56.57" arrivalSpeed="0.00" from="e18" to="-e4"/>
    <trip id="h3467c1:1" type="default" depart="34635.00" departPos="76.37" arrivalPos="69.50" arrivalSpeed="0.00" from="-e3" to="-e5"/>
    <trip id="h2795c1:1" type="default" depart="34738.00" departPos="58.96" arrivalPos="55.80" arrivalSpeed="0.00" from="e14" to="e9"/>
    <trip id="h7036c1:2" type="default" depart="34968.00" departPos="55.67" arrivalPos="50.59" arrivalSpeed="0.00" from="-e21" to="-e10"/>
    <trip id="randUni143:1" type="random" depart="34981.00" departPos="55.34" arrivalPos="48.30" arrivalSpeed="0.00" from="-e7" to="e12"/>
    <trip id="h5584c1:2" type="default" depart="35210.00" departPos="1.65" arrivalPos="52.02" arrivalSpeed="0.00" from="e20" to="e17"/>
    <trip id="randUni450:1" type="random" depart="35226.00" departPos="53.78" arrivalPos="34.86" arrivalSpeed="0.00" from="-e2" to="e17"/>
    <trip id="randUni451:1" type="random" depart="35243.00" departPos="45.19" arrivalPos="13.80" arrivalSpeed="0.00" from="e4" to="e7"/>
    <trip id="randUni47:1" type="random" depart="35401.00" departPos="24.40" arrivalPos="6.50" arrivalSpeed="0.00" from="-e21" to="-e10"/>
    <trip id="h6394c1:1" type="default" depart="35887.00" departPos="67.99" arrivalPos="62.33" arrivalSpeed="0.00" from="e18" to="-e19"/>
    <trip id="h7021c1:2" type="default" depart="35919.00" departPos="21.86" arrivalPos="63.41" arrivalSpeed="0.00" from="e24" to="-e10"/>
    <trip id="h4382c1:1" type="default" depart="36178.00" departPos="66.32" arrivalPos="63.75" arrivalSpeed="0.00" from="-e14" to="e16"/>
    <trip id="h8367c1:1" type="default" depart="36366.00" departPos="9.40" arrivalPos="32.44" arrivalSpeed="0.00" from="e24" to="-e15"/>
    <trip id="h7384c1:1" type="default" depart="36554.00" departPos="25.44" arrivalPos="65.77" arrivalSpeed="0.00" from="-e10" to="-e7"/>
    <trip id="h732c1:1" type="default" depart="36807.00" departPos="55.70" arrivalPos="66.34" arrivalSpeed="0.00" from="-e1" to="-e4"/>
    <trip id="h9103c1:1" type="default" depart="36978.00" departPos="20.29" arrivalPos="2.07" arrivalSpeed="0.00" from="-e6" to="-e16"/>
    <trip id="h4823c1:2" type="default" depart="37061.00" departPos="13.18" arrivalPos="74.37" arrivalSpeed="0.00" from="-e14" to="-e14"/>
    <trip id="randUni217:1" type="random" depart="37076.00" departPos="52.49" arrivalPos="22.91" arrivalSpeed="0.00" from="-e14" to="e5"/>
    <trip id="randUni200:1" type="random" depart="37192.00" departPos="19.73" arrivalPos="80.16" arrivalSpeed="0.00" from="e8" to="e9"/>
    <trip id="h8950c1:1" type="default" depart="37255.00" departPos="38.42" arrivalPos="66.72" arrivalSpeed="0.00" from="-e6" to="-e5"/>
    <trip id="h9297c1:1" type="default" depart="37342.00" departPos="76.54" arrivalPos="18.70" arrivalSpeed="0.00" from="-e6" to="e12"/>
    <trip id="h2678c1:1" type="default" depart="37409.00" departPos="20.00" arrivalPos="21.69" arrivalSpeed="0.00" from="e14" to="e7"/>
    <trip id="h5393c1:1" type="default" depart="37726.00" departPos="38.32" arrivalPos="47.37" arrivalSpeed="0.00" from="e17" to="e18"/>
    <trip id="h2795c1:2" type="default" depart="37981.00" departPos="55.80" arrivalPos="58.96" arrivalSpeed="0.00" from="e9" to="e14"/>
    <trip id="h8704c1:2" type="default" depart="37993.00" departPos="45.40" arrivalPos="43.19" arrivalSpeed="0.00" from="-e23" to="e24"/>
    <trip id="randUni232:1" type="random" depart="38028.00" departPos="14.52" arrivalPos="66.99" arrivalSpeed="0.00" from="-e17" to="e8"/>
    <trip id="h7253c1:1" type="default" depart="38047.00" departPos="9.45" arrivalPos="40.22" arrivalSpeed="0.00" from="-e10" to="e8"/>
    <trip id="h7319c1:1" type="default" depart="38194.00" departPos="35.83" arrivalPos="73.68" arrivalSpeed="0.00" from="-e10" to="e24"/>
    <trip id="randUni177:1" type="random" depart="38423.00" departPos="28.14" arrivalPos="20.14" arrivalSpeed="0.00" from="-e12" to="e17"/>
    <trip id="h946c1:1" type="default" depart="38495.00" departPos="4.59" arrivalPos="28.25" arrivalSpeed="0.00" from="-e1" to="e24"/>
    <trip id="h8988c1:1" type="default" depart="38547.00" departPos="77.03" arrivalPos="24.21" arrivalSpeed="0.00" from="-e6" to="e1"/>
    <trip id="h4111c1:1" type="default" depart="38583.00" departPos="2.40" arrivalPos="69.87" arrivalSpeed="0.00" from="-e14" to="-e8"/>
    <trip id="h4343c1:1" type="default" depart="38656.00" departPos="59.76" arrivalPos="61.25" arrivalSpeed="0.00" from="-e14" to="-e24"/>
    <trip id="h4250c1:1" type="default" depart="38850.00" departPos="18.50" arrivalPos="29.07" arrivalSpeed="0.00" from="-e14" to="e10"/>
    <trip id="h1080c1:1" type="default" depart="38902.00" departPos="14.10" arrivalPos="70.82" arrivalSpeed="0.00" from="-e1" to="-e14"/>
    <trip id="h3918c1:2" type="default" depart="39002.00" departPos="9.40" arrivalPos="34.97" arrivalSpeed="0.00" from="e17" to="-e14"/>
    <trip id="randUni336:1" type="random" depart="39088.00" departPos="60.65" arrivalPos="26.96" arrivalSpeed="0.00" from="-e17" to="-e4"/>
    <trip id="randUni395:1" type="random" depart="39146.00" departPos="78.74" arrivalPos="75.38" arrivalSpeed="0.00" from="e13" to="-e17"/>
    <trip id="h4382c1:2" type="default" depart="39412.00" departPos="63.75" arrivalPos="66.32" arrivalSpeed="0.00" from="e16" to="-e14"/>
    <trip id="h7495c1:2" type="default" depart="39499.00" departPos="72.46" arrivalPos="37.45" arrivalSpeed="0.00" from="-e8" to="-e10"/>
    <trip id="h6413c1:1" type="default" depart="39500.00" departPos="29.01" arrivalPos="80.71" arrivalSpeed="0.00" from="e18" to="-e7"/>
    <trip id="h4979c1:1" type="default" depart="39524.00" departPos="36.88" arrivalPos="46.76" arrivalSpeed="0.00" from="e17" to="e10"/>
    <trip id="h946c1:2" type="default" depart="39724.00" departPos="28.25" arrivalPos="4.59" arrivalSpeed="0.00" from="e24" to="-e1"/>
    <trip id="h3467c1:2" type="default" depart="39802.00" departPos="69.50" arrivalPos="76.37" arrivalSpeed="0.00" from="-e5" to="-e3"/>
    <trip id="h7048c1:2" type="default" depart="39824.00" departPos="0.99" arrivalPos="18.78" arrivalSpeed="0.00" from="-e14" to="-e10"/>
    <trip id="randUni187:1" type="random" depart="39850.00" departPos="71.13" arrivalPos="39.61" arrivalSpeed="0.00" from="e23" to="e13"/>
    <trip id="h7253c1:2" type="default" depart="40063.00" departPos="40.22" arrivalPos="9.45" arrivalSpeed="0.00" from="e8" to="-e10"/>
    <trip id="randUni165:1" type="random" depart="40213.00" departPos="44.06" arrivalPos="10.23" arrivalSpeed="0.00" from="-e21" to="-e19"/>
    <trip id="h3067c1:1" type="default" depart="40240.00" departPos="0.18" arrivalPos="65.15" arrivalSpeed="0.00" from="-e3" to="-e13"/>
    <trip id="randUni72:1" type="random" depart="40265.00" departPos="52.64" arrivalPos="14.25" arrivalSpeed="0.00" from="e20" to="e9"/>
    <trip id="h6599c1:1" type="default" depart="40298.00" departPos="19.10" arrivalPos="61.98" arrivalSpeed="0.00" from="-e10" to="e23"/>
    <trip id="randUni8:1" type="random" depart="40330.00" departPos="73.32" arrivalPos="47.91" arrivalSpeed="0.00" from="e17" to="-e11"/>
    <trip id="h4428c1:1" type="default" depart="40407.00" departPos="7.33" arrivalPos="37.80" arrivalSpeed="0.00" from="-e14" to="-e1"/>
    <trip id="h7873c1:1" type="default" depart="40583.00" departPos="55.28" arrivalPos="6.40" arrivalSpeed="0.00" from="-e9" to="e19"/>
    <trip id="h5078c1:1" type="default" depart="40640.00" departPos="0.83" arrivalPos="14.07" arrivalSpeed="0.00" from="e17" to="-e4"/>
    <trip id="h2061c1:2" type="default" depart="40663.00" departPos="18.55" arrivalPos="8.34" arrivalSpeed="0.00" from="e17" to="-e2"/>
    <trip id="h4979c1:2" type="default" depart="40677.00" departPos="46.76" arrivalPos="36.88" arrivalSpeed="0.00" from="e10" to="e17"/>
    <trip id="h2740c1:1" type="default" depart="40712.00" departPos="76.65" arrivalPos="69.92" arrivalSpeed="0.00" from="e14" to="-e10"/>
    <trip id="randUni366:1" type="random" depart="40858.00" departPos="78.18" arrivalPos="5.05" arrivalSpeed="0.00" from="-e15" to="e18"/>
    <trip id="h9253c1:1" type="default" depart="40981.00" departPos="44.09" arrivalPos="22.13" arrivalSpeed="0.00" from="-e6" to="e8"/>
    <trip id="randUni90:1" type="random" depart="41114.00" departPos="44.08" arrivalPos="11.51" arrivalSpeed="0.00" from="e20" to="e11"/>
    <trip id="h7043c1:1" type="default" depart="41127.00" departPos="46.79" arrivalPos="16.53" arrivalSpeed="0.00" from="-e10" to="-e24"/>
    <trip id="randUni343:1" type="random" depart="41295.00" departPos="8.08" arrivalPos="19.07" arrivalSpeed="0.00" from="-e1" to="-e15"/>
    <trip id="h1173c1:1" type="default" depart="41485.00" departPos="7.73" arrivalPos="40.07" arrivalSpeed="0.00" from="-e19" to="e4"/>
    <trip id="randUni204:1" type="random" depart="41658.00" departPos="57.11" arrivalPos="21.47" arrivalSpeed="0.00" from="-e23" to="e23"/>
    <trip id="h4144c1:2" type="default" depart="41809.00" departPos="49.46" arrivalPos="54.89" arrivalSpeed="0.00" from="-e2" to="-e14"/>
    <trip id="h260c1:1" type="default" depart="42021.00" departPos="6.17" arrivalPos="32.11" arrivalSpeed="0.00" from="-e1" to="e1"/>
    <trip id="h579c1:1" type="default" depart="42208.00" departPos="68.32" arrivalPos="46.28" arrivalSpeed="0.00" from="-e1" to="-e2"/>
    <trip id="randUni92:1" type="random" depart="42284.00" departPos="78.64" arrivalPos="37.08" arrivalSpeed="0.00" from="e15" to="-e18"/>
    <trip id="h7879c1:2" type="default" depart="42344.00" departPos="4.55" arrivalPos="3.76" arrivalSpeed="0.00" from="-e17" to="-e9"/>
    <trip id="randUni201:1" type="random" depart="42494.00" departPos="43.52" arrivalPos="69.63" arrivalSpeed="0.00" from="e16" to="-e3"/>
    <trip id="randUni10:1" type="random" depart="42647.00" departPos="36.22" arrivalPos="44.54" arrivalSpeed="0.00" from="-e11" to="e4"/>
    <trip id="h7200c1:1" type="default" depart="42815.00" departPos="68.67" arrivalPos="45.49" arrivalSpeed="0.00" from="-e10" to="e1"/>
    <trip id="h225c1:1" type="default" depart="42952.00" departPos="27.69" arrivalPos="75.90" arrivalSpeed="0.00" from="-e1" to="e14"/>
    <trip id="randUni142:1" type="random" depart="43002.00" departPos="43.01" arrivalPos="49.49" arrivalSpeed="0.00" from="e23" to="-e14"/>
    <trip id="h4969c1:1" type="default" depart="43037.00" departPos="57.88" arrivalPos="72.35" arrivalSpeed="0.00" from="e17" to="-e1"/>
    <trip id="h4597c1:1" type="default" depart="43176.00" departPos="16.83" arrivalPos="34.91" arrivalSpeed="0.00" from="-e14" to="e9"/>
    <trip id="randUni384:1" type="random" depart="43183.00" departPos="60.09" arrivalPos="7.98" arrivalSpeed="0.00" from="e16" to="e12"/>
    <trip id="randUni377:1" type="random" depart="43242.00" departPos="3.61" arrivalPos="37.09" arrivalSpeed="0.00" from="-e4" to="e13"/>
    <trip id="h6599c1:2" type="default" depart="43283.00" departPos="61.98" arrivalPos="19.10" arrivalSpeed="0.00" from="e23" to="-e10"/>
    <trip id="h1917c1:1" type="default" depart="43289.00" departPos="45.33" arrivalPos="2.29" arrivalSpeed="0.00" from="-e2" to="-e14"/>
    <trip id="h7338c1:2" type="default" depart="43737.00" departPos="28.67" arrivalPos="19.22" arrivalSpeed="0.00" from="-e24" to="-e10"/>
    <trip id="h4419c1:1" type="default" depart="43916.00" departPos="11.63" arrivalPos="79.19" arrivalSpeed="0.00" from="-e14" to="e21"/>
    <trip id="randUni321:1" type="random" depart="43981.00" departPos="2.34" arrivalPos="26.18" arrivalSpeed="0.00" from="-e24" to="e11"/>
    <trip id="h5779c1:2" type="default" depart="44282.00" departPos="39.18" arrivalPos="0.09" arrivalSpeed="0.00" from="e11" to="-e15"/>
    <trip id="h5139c1:1" type="default" depart="44462.00" departPos="15.52" arrivalPos="25.28" arrivalSpeed="0.00" from="e17" to="e18"/>
    <trip id="h4662c1:1" type="default" depart="44617.00" departPos="44.57" arrivalPos="61.81" arrivalSpeed="0.00" from="-e14" to="-e9"/>
    <trip id="randUni52:1" type="random" depart="44718.00" departPos="40.90" arrivalPos="46.44" arrivalSpeed="0.00" from="-e5" to="e16"/>
    <trip id="randUni43:1" type="random" depart="44727.00" departPos="39.43" arrivalPos="62.70" arrivalSpeed="0.00" from="-e12" to="-e2"/>
    <trip id="h7384c1:2" type="default" depart="44764.00" departPos="65.77" arrivalPos="25.44" arrivalSpeed="0.00" from="-e7" to="-e10"/>
    <trip id="randUni80:1" type="random" depart="44817.00" departPos="61.56" arrivalPos="10.99" arrivalSpeed="0.00" from="-e14" to="-e16"/>
    <trip id="h8471c1:2" type="default" depart="44943.00" departPos="12.94" arrivalPos="43.05" arrivalSpeed="0.00" from="e20" to="e24"/>
    <trip id="h6789c1:1" type="default" depart="45051.00" departPos="61.63" arrivalPos="45.94" arrivalSpeed="0.00" from="-e10" to="-e17"/>
    <trip id="h6108c1:1" type="default" depart="45168.00" departPos="36.70" arrivalPos="10.52" arrivalSpeed="0.00" from="e18" to="e14"/>
    <trip id="randUni29:1" type="random" depart="45175.00" departPos="3.12" arrivalPos="1.52" arrivalSpeed="0.00" from="-e10" to="-e13"/>
    <trip id="h7859c1:1" type="default" depart="45348.00" departPos="62.31" arrivalPos="77.01" arrivalSpeed="0.00" from="-e9" to="-e14"/>
    <trip id="randUni199:1" type="random" depart="45484.00" departPos="71.34" arrivalPos="6.75" arrivalSpeed="0.00" from="-e11" to="-e15"/>
    <trip id="h4969c1:2" type="default" depart="45565.00" departPos="72.35" arrivalPos="57.88" arrivalSpeed="0.00" from="-e1" to="e17"/>
    <trip id="h8950c1:2" type="default" depart="45874.00" departPos="66.72" arrivalPos="38.42" arrivalSpeed="0.00" from="-e5" to="-e6"/>
    <trip id="h1917c1:2" type="default" depart="45960.00" departPos="2.29" arrivalPos="45.33" arrivalSpeed="0.00" from="-e14" to="-e2"/>
    <trip id="h1173c1:2" type="default" depart="46072.00" departPos="40.07" arrivalPos="7.73" arrivalSpeed="0.00" from="e4" to="-e19"/>
    <trip id="randUni139:1" type="random" depart="46285.00" departPos="66.32" arrivalPos="32.26" arrivalSpeed="0.00" from="e21" to="-e8"/>
    <trip id="h3784c1:1" type="default" depart="46332.00" departPos="66.33" arrivalPos="66.98" arrivalSpeed="0.00" from="e16" to="-e5"/>
    <trip id="randUni400:1" type="random" depart="46416.00" departPos="17.56" arrivalPos="3.92" arrivalSpeed="0.00" from="e15" to="-e4"/>
    <trip id="h5230c1:1" type="default" depart="46838.00" departPos="43.85" arrivalPos="3.74" arrivalSpeed="0.00" from="e17" to="-e14"/>
    <trip id="h9103c1:2" type="default" depart="47037.00" departPos="2.07" arrivalPos="20.29" arrivalSpeed="0.00" from="-e16" to="-e6"/>
    <trip id="randUni248:1" type="random" depart="47095.00" departPos="14.44" arrivalPos="32.07" arrivalSpeed="0.00" from="-e1" to="-e18"/>