<?xml version="1.0" encoding="UTF-8"?>

<configuration xmlns:xsi="http://www.w3.org/2001/XMLSchema-instance" xsi:noNamespaceSchemaLocation="http://sumo.dlr.de/xsd/sumoConfiguration.xsd">

    <input>
        <net-file value="./noCars.net.xml"/>
        <route-files value="./noCars.random.ped.rou.xml,./noCars.bus.rou.xml"/>
        <additional-files value="./noCars.add.xml"/>
    </input>

    <report>
        <log value="./log.txt"/>
    </report>

</configuration>
