<?xml version="1.0" encoding="UTF-8"?>

<!-- generated on 01/30/20 20:21:43 by Eclipse SUMO netedit Version 1.4.0
<configuration xmlns:xsi="http://www.w3.org/2001/XMLSchema-instance" xsi:noNamespaceSchemaLocation="http://sumo.dlr.de/xsd/netconvertConfiguration.xsd">

    <output>
        <output-file value="D:\Documents\MIT\UROP\IAP20\SUMO\SUMO-3x3\noCars.net.xml"/>
    </output>

    <processing>
        <offset.disable-normalization value="true"/>
    </processing>

    <junctions>
        <no-turnarounds value="true"/>
    </junctions>

    <report>
        <aggregate-warnings value="5"/>
    </report>

</configuration>
-->

<net version="1.3" junctionCornerDetail="5" limitTurnSpeed="5.50" xmlns:xsi="http://www.w3.org/2001/XMLSchema-instance" xsi:noNamespaceSchemaLocation="http://sumo.dlr.de/xsd/net_file.xsd">

    <location netOffset="0.00,0.00" convBoundary="-100.00,-100.00,200.00,200.00" origBoundary="10000000000.00,10000000000.00,-10000000000.00,-10000000000.00" projParameter="!"/>

    <edge id=":gneJ3_0" function="internal">
        <lane id=":gneJ3_0_0" index="0" allow="pedestrian bicycle" speed="3.90" length="2.58" shape="195.20,-93.60 195.10,-94.30 194.80,-94.80 194.30,-95.10 193.60,-95.20"/>
    </edge>
    <edge id=":gneJ3_1" function="internal">
        <lane id=":gneJ3_1_0" index="0" allow="bus" speed="6.08" length="7.74" shape="198.40,-93.60 198.10,-95.70 197.20,-97.20 195.70,-98.10 193.60,-98.40"/>
    </edge>
    <edge id=":gneJ3_2" function="internal">
        <lane id=":gneJ3_2_0" index="0" allow="pedestrian bicycle" speed="8.96" length="18.06" shape="193.60,-104.80 198.50,-104.10 202.00,-102.00 204.10,-98.50 204.80,-93.60"/>
    </edge>
    <edge id=":gneJ3_3" function="internal">
        <lane id=":gneJ3_3_0" index="0" allow="bus" speed="7.66" length="12.90" shape="193.60,-101.60 197.10,-101.10 199.60,-99.60 201.10,-97.10 201.60,-93.60"/>
    </edge>
    <edge id=":j1_0" function="internal">
        <lane id=":j1_0_0" index="0" allow="pedestrian bicycle" speed="8.96" length="18.06" shape="-104.80,-93.60 -104.10,-98.50 -102.00,-102.00 -98.50,-104.10 -93.60,-104.80"/>
    </edge>
    <edge id=":j1_1" function="internal">
        <lane id=":j1_1_0" index="0" allow="bus" speed="7.66" length="12.90" shape="-101.60,-93.60 -101.10,-97.10 -99.60,-99.60 -97.10,-101.10 -93.60,-101.60"/>
    </edge>
    <edge id=":j1_2" function="internal">
        <lane id=":j1_2_0" index="0" allow="pedestrian bicycle" speed="3.90" length="2.58" shape="-93.60,-95.20 -94.30,-95.10 -94.80,-94.80 -95.10,-94.30 -95.20,-93.60"/>
    </edge>
    <edge id=":j1_3" function="internal">
        <lane id=":j1_3_0" index="0" allow="bus" speed="6.08" length="7.74" shape="-93.60,-98.40 -95.70,-98.10 -97.20,-97.20 -98.10,-95.70 -98.40,-93.60"/>
    </edge>
    <edge id=":j10_0" function="internal">
        <lane id=":j10_0_0" index="0" allow="pedestrian bicycle" speed="8.96" length="18.06" shape="-93.60,204.80 -98.50,204.10 -102.00,202.00 -104.10,198.50 -104.80,193.60"/>
    </edge>
    <edge id=":j10_1" function="internal">
        <lane id=":j10_1_0" index="0" allow="bus" speed="7.66" length="12.90" shape="-93.60,201.60 -97.10,201.10 -99.60,199.60 -101.10,197.10 -101.60,193.60"/>
    </edge>
    <edge id=":j10_2" function="internal">
        <lane id=":j10_2_0" index="0" allow="pedestrian bicycle" speed="3.90" length="2.58" shape="-95.20,193.60 -95.10,194.30 -94.80,194.80 -94.30,195.10 -93.60,195.20"/>
    </edge>
    <edge id=":j10_3" function="internal">
        <lane id=":j10_3_0" index="0" allow="bus" speed="6.08" length="7.74" shape="-98.40,193.60 -98.10,195.70 -97.20,197.20 -95.70,198.10 -93.60,198.40"/>
    </edge>
    <edge id=":j11_0" function="internal">
        <lane id=":j11_0_0" index="0" allow="pedestrian bicycle" speed="13.89" length="9.40" shape="-104.80,104.70 -104.80,95.30"/>
    </edge>
    <edge id=":j11_1" function="internal">
        <lane id=":j11_1_0" index="0" allow="pedestrian bicycle" speed="8.38" length="7.65" shape="-104.80,104.70 -104.01,101.94 -101.63,99.97 -100.00,99.49"/>
    </edge>
    <edge id=":j11_2" function="internal">
        <lane id=":j11_2_0" index="0" allow="bus" speed="13.89" length="9.40" shape="-101.60,104.70 -101.60,95.30"/>
    </edge>
    <edge id=":j11_8" function="internal">
        <lane id=":j11_8_0" index="0" allow="pedestrian bicycle" speed="8.38" length="8.02" shape="-100.00,99.49 -97.66,98.79 -92.10,98.40"/>
    </edge>
    <edge id=":j11_3" function="internal">
        <lane id=":j11_3_0" index="0" allow="pedestrian bicycle" speed="5.04" length="5.00" shape="-92.10,101.60 -93.46,101.79 -94.42,102.37 -95.01,103.34 -95.20,104.70"/>
    </edge>
    <edge id=":j11_4" function="internal">
        <lane id=":j11_4_0" index="0" allow="pedestrian bicycle" speed="8.38" length="15.67" shape="-92.10,101.60 -97.66,101.21 -101.63,100.02 -104.01,98.06 -104.80,95.30"/>
    </edge>
    <edge id=":j11_5" function="internal">
        <lane id=":j11_5_0" index="0" allow="pedestrian bicycle" speed="5.04" length="5.00" shape="-95.20,95.30 -95.01,96.66 -94.43,97.63 -93.46,98.21 -92.10,98.40"/>
    </edge>
    <edge id=":j11_6" function="internal">
        <lane id=":j11_6_0" index="0" allow="pedestrian bicycle" speed="13.89" length="9.40" shape="-95.20,95.30 -95.20,104.70"/>
        <lane id=":j11_6_1" index="1" allow="bus" speed="13.89" length="9.40" shape="-98.40,95.30 -98.40,104.70"/>
    </edge>
    <edge id=":j12_0" function="internal">
        <lane id=":j12_0_0" index="0" allow="pedestrian bicycle" speed="13.89" length="9.40" shape="-104.80,4.70 -104.80,-4.70"/>
    </edge>
    <edge id=":j12_1" function="internal">
        <lane id=":j12_1_0" index="0" allow="pedestrian bicycle" speed="8.38" length="7.65" shape="-104.80,4.70 -104.01,1.94 -101.63,-0.03 -100.00,-0.51"/>
    </edge>
    <edge id=":j12_2" function="internal">
        <lane id=":j12_2_0" index="0" allow="bus" speed="13.89" length="9.40" shape="-101.60,4.70 -101.60,-4.70"/>
    </edge>
    <edge id=":j12_8" function="internal">
        <lane id=":j12_8_0" index="0" allow="pedestrian bicycle" speed="8.38" length="8.02" shape="-100.00,-0.51 -97.66,-1.21 -92.10,-1.60"/>
    </edge>
    <edge id=":j12_3" function="internal">
        <lane id=":j12_3_0" index="0" allow="pedestrian bicycle" speed="5.04" length="5.00" shape="-92.10,1.60 -93.46,1.79 -94.42,2.37 -95.01,3.34 -95.20,4.70"/>
    </edge>
    <edge id=":j12_4" function="internal">
        <lane id=":j12_4_0" index="0" allow="pedestrian bicycle" speed="8.38" length="15.67" shape="-92.10,1.60 -97.66,1.21 -101.63,0.03 -104.01,-1.94 -104.80,-4.70"/>
    </edge>
    <edge id=":j12_5" function="internal">
        <lane id=":j12_5_0" index="0" allow="pedestrian bicycle" speed="5.04" length="5.00" shape="-95.20,-4.70 -95.01,-3.34 -94.43,-2.37 -93.46,-1.79 -92.10,-1.60"/>
    </edge>
    <edge id=":j12_6" function="internal">
        <lane id=":j12_6_0" index="0" allow="pedestrian bicycle" speed="13.89" length="9.40" shape="-95.20,-4.70 -95.20,4.70"/>
        <lane id=":j12_6_1" index="1" allow="bus" speed="13.89" length="9.40" shape="-98.40,-4.70 -98.40,4.70"/>
    </edge>
    <edge id=":j13_0" function="internal">
        <lane id=":j13_0_0" index="0" allow="pedestrian bicycle" speed="5.04" length="5.00" shape="-1.60,4.70 -1.79,3.34 -2.37,2.38 -3.34,1.79 -4.70,1.60"/>
    </edge>
    <edge id=":j13_1" function="internal">
        <lane id=":j13_1_0" index="0" allow="pedestrian bicycle" speed="13.89" length="9.40" shape="-1.60,4.70 -1.60,-4.70"/>
    </edge>
    <edge id=":j13_2" function="internal">
        <lane id=":j13_2_0" index="0" allow="pedestrian bicycle" speed="6.86" length="2.03" shape="-1.60,4.70 -1.31,2.69"/>
    </edge>
    <edge id=":j13_12" function="internal">
        <lane id=":j13_12_0" index="0" allow="pedestrian bicycle" speed="6.86" length="8.13" shape="-1.31,2.69 -1.21,1.94 -0.03,-0.03 1.94,-1.21 4.70,-1.60"/>
    </edge>
    <edge id=":j13_3" function="internal">
        <lane id=":j13_3_0" index="0" allow="pedestrian bicycle" speed="5.04" length="5.00" shape="4.70,1.60 3.34,1.79 2.38,2.37 1.79,3.34 1.60,4.70"/>
    </edge>
    <edge id=":j13_4" function="internal">
        <lane id=":j13_4_0" index="0" allow="pedestrian bicycle" speed="13.89" length="9.40" shape="4.70,1.60 -4.70,1.60"/>
    </edge>
    <edge id=":j13_5" function="internal">
        <lane id=":j13_5_0" index="0" allow="pedestrian bicycle" speed="6.86" length="10.16" shape="4.70,1.60 1.94,1.21 -0.03,0.03 -1.21,-1.94 -1.60,-4.70"/>
    </edge>
    <edge id=":j13_6" function="internal">
        <lane id=":j13_6_0" index="0" allow="pedestrian bicycle" speed="5.04" length="5.00" shape="1.60,-4.70 1.79,-3.34 2.37,-2.37 3.34,-1.79 4.70,-1.60"/>
    </edge>
    <edge id=":j13_7" function="internal">
        <lane id=":j13_7_0" index="0" allow="pedestrian bicycle" speed="13.89" length="9.40" shape="1.60,-4.70 1.60,4.70"/>
    </edge>
    <edge id=":j13_8" function="internal">
        <lane id=":j13_8_0" index="0" allow="pedestrian bicycle" speed="6.86" length="2.03" shape="1.60,-4.70 1.31,-2.69"/>
    </edge>
    <edge id=":j13_13" function="internal">
        <lane id=":j13_13_0" index="0" allow="pedestrian bicycle" speed="6.86" length="8.13" shape="1.31,-2.69 1.21,-1.94 0.03,0.03 -1.94,1.21 -4.70,1.60"/>
    </edge>
    <edge id=":j13_9" function="internal">
        <lane id=":j13_9_0" index="0" allow="pedestrian bicycle" speed="5.04" length="5.00" shape="-4.70,-1.60 -3.34,-1.79 -2.37,-2.37 -1.79,-3.34 -1.60,-4.70"/>
    </edge>
    <edge id=":j13_10" function="internal">
        <lane id=":j13_10_0" index="0" allow="pedestrian bicycle" speed="13.89" length="9.40" shape="-4.70,-1.60 4.70,-1.60"/>
    </edge>
    <edge id=":j13_11" function="internal">
        <lane id=":j13_11_0" index="0" allow="pedestrian bicycle" speed="6.86" length="10.16" shape="-4.70,-1.60 -1.94,-1.21 0.03,-0.03 1.21,1.94 1.60,4.70"/>
    </edge>
    <edge id=":j14_0" function="internal">
        <lane id=":j14_0_0" index="0" allow="pedestrian bicycle" speed="5.04" length="5.00" shape="98.40,4.70 98.21,3.34 97.63,2.38 96.66,1.79 95.30,1.60"/>
    </edge>
    <edge id=":j14_1" function="internal">
        <lane id=":j14_1_0" index="0" allow="pedestrian bicycle" speed="13.89" length="9.40" shape="98.40,4.70 98.40,-4.70"/>
    </edge>
    <edge id=":j14_2" function="internal">
        <lane id=":j14_2_0" index="0" allow="pedestrian bicycle" speed="6.86" length="2.03" shape="98.40,4.70 98.69,2.69"/>
    </edge>
    <edge id=":j14_12" function="internal">
        <lane id=":j14_12_0" index="0" allow="pedestrian bicycle" speed="6.86" length="8.13" shape="98.69,2.69 98.79,1.94 99.98,-0.03 101.94,-1.21 104.70,-1.60"/>
    </edge>
    <edge id=":j14_3" function="internal">
        <lane id=":j14_3_0" index="0" allow="pedestrian bicycle" speed="5.04" length="5.00" shape="104.70,1.60 103.34,1.79 102.38,2.37 101.79,3.34 101.60,4.70"/>
    </edge>
    <edge id=":j14_4" function="internal">
        <lane id=":j14_4_0" index="0" allow="pedestrian bicycle" speed="13.89" length="9.40" shape="104.70,1.60 95.30,1.60"/>
    </edge>
    <edge id=":j14_5" function="internal">
        <lane id=":j14_5_0" index="0" allow="pedestrian bicycle" speed="6.86" length="10.16" shape="104.70,1.60 101.94,1.21 99.97,0.03 98.79,-1.94 98.40,-4.70"/>
    </edge>
    <edge id=":j14_6" function="internal">
        <lane id=":j14_6_0" index="0" allow="pedestrian bicycle" speed="5.04" length="5.00" shape="101.60,-4.70 101.79,-3.34 102.37,-2.37 103.34,-1.79 104.70,-1.60"/>
    </edge>
    <edge id=":j14_7" function="internal">
        <lane id=":j14_7_0" index="0" allow="pedestrian bicycle" speed="13.89" length="9.40" shape="101.60,-4.70 101.60,4.70"/>
    </edge>
    <edge id=":j14_8" function="internal">
        <lane id=":j14_8_0" index="0" allow="pedestrian bicycle" speed="6.86" length="2.03" shape="101.60,-4.70 101.31,-2.69"/>
    </edge>
    <edge id=":j14_13" function="internal">
        <lane id=":j14_13_0" index="0" allow="pedestrian bicycle" speed="6.86" length="8.13" shape="101.31,-2.69 101.21,-1.94 100.02,0.02 98.06,1.21 95.30,1.60"/>
    </edge>
    <edge id=":j14_9" function="internal">
        <lane id=":j14_9_0" index="0" allow="pedestrian bicycle" speed="5.04" length="5.00" shape="95.30,-1.60 96.66,-1.79 97.63,-2.37 98.21,-3.34 98.40,-4.70"/>
    </edge>
    <edge id=":j14_10" function="internal">
        <lane id=":j14_10_0" index="0" allow="pedestrian bicycle" speed="13.89" length="9.40" shape="95.30,-1.60 104.70,-1.60"/>
    </edge>
    <edge id=":j14_11" function="internal">
        <lane id=":j14_11_0" index="0" allow="pedestrian bicycle" speed="6.86" length="10.16" shape="95.30,-1.60 98.06,-1.21 100.03,-0.03 101.21,1.94 101.60,4.70"/>
    </edge>
    <edge id=":j15_0" function="internal">
        <lane id=":j15_0_0" index="0" allow="pedestrian bicycle" speed="5.04" length="5.00" shape="98.40,104.70 98.21,103.34 97.63,102.38 96.66,101.79 95.30,101.60"/>
    </edge>
    <edge id=":j15_1" function="internal">
        <lane id=":j15_1_0" index="0" allow="pedestrian bicycle" speed="13.89" length="9.40" shape="98.40,104.70 98.40,95.30"/>
    </edge>
    <edge id=":j15_2" function="internal">
        <lane id=":j15_2_0" index="0" allow="pedestrian bicycle" speed="6.86" length="2.03" shape="98.40,104.70 98.69,102.69"/>
    </edge>
    <edge id=":j15_9" function="internal">
        <lane id=":j15_9_0" index="0" allow="pedestrian bicycle" speed="6.86" length="8.13" shape="98.69,102.69 98.79,101.94 99.98,99.97 101.94,98.79 104.70,98.40"/>
    </edge>
    <edge id=":j15_3" function="internal">
        <lane id=":j15_3_0" index="0" allow="pedestrian bicycle" speed="5.04" length="5.00" shape="104.70,101.60 103.34,101.79 102.38,102.37 101.79,103.34 101.60,104.70"/>
    </edge>
    <edge id=":j15_4" function="internal">
        <lane id=":j15_4_0" index="0" allow="pedestrian bicycle" speed="13.89" length="9.40" shape="104.70,101.60 95.30,101.60"/>
    </edge>
    <edge id=":j15_5" function="internal">
        <lane id=":j15_5_0" index="0" allow="pedestrian bicycle" speed="6.86" length="10.16" shape="104.70,101.60 101.94,101.21 99.97,100.02 98.79,98.06 98.40,95.30"/>
    </edge>
    <edge id=":j15_6" function="internal">
        <lane id=":j15_6_0" index="0" allow="pedestrian bicycle" speed="5.04" length="5.00" shape="101.60,95.30 101.79,96.66 102.37,97.63 103.34,98.21 104.70,98.40"/>
    </edge>
    <edge id=":j15_7" function="internal">
        <lane id=":j15_7_0" index="0" allow="pedestrian bicycle" speed="13.89" length="9.40" shape="101.60,95.30 101.60,104.70"/>
    </edge>
    <edge id=":j15_8" function="internal">
        <lane id=":j15_8_0" index="0" allow="pedestrian bicycle" speed="6.86" length="2.03" shape="101.60,95.30 101.31,97.31"/>
    </edge>
    <edge id=":j15_10" function="internal">
        <lane id=":j15_10_0" index="0" allow="pedestrian bicycle" speed="6.86" length="8.13" shape="101.31,97.31 101.21,98.06 100.02,100.03 98.06,101.21 95.30,101.60"/>
    </edge>
    <edge id=":j16_0" function="internal">
        <lane id=":j16_0_0" index="0" allow="pedestrian bicycle" speed="5.04" length="5.00" shape="-1.60,104.70 -1.79,103.34 -2.37,102.38 -3.34,101.79 -4.70,101.60"/>
    </edge>
    <edge id=":j16_1" function="internal">
        <lane id=":j16_1_0" index="0" allow="pedestrian bicycle" speed="13.89" length="9.40" shape="-1.60,104.70 -1.60,95.30"/>
    </edge>
    <edge id=":j16_2" function="internal">
        <lane id=":j16_2_0" index="0" allow="pedestrian bicycle" speed="6.86" length="2.03" shape="-1.60,104.70 -1.31,102.69"/>
    </edge>
    <edge id=":j16_12" function="internal">
        <lane id=":j16_12_0" index="0" allow="pedestrian bicycle" speed="6.86" length="8.13" shape="-1.31,102.69 -1.21,101.94 -0.03,99.97 1.94,98.79 4.70,98.40"/>
    </edge>
    <edge id=":j16_3" function="internal">
        <lane id=":j16_3_0" index="0" allow="pedestrian bicycle" speed="5.04" length="5.00" shape="4.70,101.60 3.34,101.79 2.38,102.37 1.79,103.34 1.60,104.70"/>
    </edge>
    <edge id=":j16_4" function="internal">
        <lane id=":j16_4_0" index="0" allow="pedestrian bicycle" speed="13.89" length="9.40" shape="4.70,101.60 -4.70,101.60"/>
    </edge>
    <edge id=":j16_5" function="internal">
        <lane id=":j16_5_0" index="0" allow="pedestrian bicycle" speed="6.86" length="10.16" shape="4.70,101.60 1.94,101.21 -0.03,100.02 -1.21,98.06 -1.60,95.30"/>
    </edge>
    <edge id=":j16_6" function="internal">
        <lane id=":j16_6_0" index="0" allow="pedestrian bicycle" speed="5.04" length="5.00" shape="1.60,95.30 1.79,96.66 2.37,97.63 3.34,98.21 4.70,98.40"/>
    </edge>
    <edge id=":j16_7" function="internal">
        <lane id=":j16_7_0" index="0" allow="pedestrian bicycle" speed="13.89" length="9.40" shape="1.60,95.30 1.60,104.70"/>
    </edge>
    <edge id=":j16_8" function="internal">
        <lane id=":j16_8_0" index="0" allow="pedestrian bicycle" speed="6.86" length="2.03" shape="1.60,95.30 1.31,97.31"/>
    </edge>
    <edge id=":j16_13" function="internal">
        <lane id=":j16_13_0" index="0" allow="pedestrian bicycle" speed="6.86" length="8.13" shape="1.31,97.31 1.21,98.06 0.03,100.03 -1.94,101.21 -4.70,101.60"/>
    </edge>
    <edge id=":j16_9" function="internal">
        <lane id=":j16_9_0" index="0" allow="pedestrian bicycle" speed="5.04" length="5.00" shape="-4.70,98.40 -3.34,98.21 -2.37,97.63 -1.79,96.66 -1.60,95.30"/>
    </edge>
    <edge id=":j16_10" function="internal">
        <lane id=":j16_10_0" index="0" allow="pedestrian bicycle" speed="13.89" length="9.40" shape="-4.70,98.40 4.70,98.40"/>
    </edge>
    <edge id=":j16_11" function="internal">
        <lane id=":j16_11_0" index="0" allow="pedestrian bicycle" speed="6.86" length="10.16" shape="-4.70,98.40 -1.94,98.79 0.02,99.98 1.21,101.94 1.60,104.70"/>
    </edge>
    <edge id=":j2_0" function="internal">
        <lane id=":j2_0_0" index="0" allow="pedestrian bicycle" speed="5.04" length="5.00" shape="-1.60,-92.10 -1.79,-93.46 -2.37,-94.42 -3.34,-95.01 -4.70,-95.20"/>
    </edge>
    <edge id=":j2_1" function="internal">
        <lane id=":j2_1_0" index="0" allow="pedestrian bicycle" speed="8.38" length="15.67" shape="-1.60,-92.10 -1.21,-97.66 -0.03,-101.63 1.94,-104.01 4.70,-104.80"/>
    </edge>
    <edge id=":j2_2" function="internal">
        <lane id=":j2_2_0" index="0" allow="pedestrian bicycle" speed="5.04" length="5.00" shape="4.70,-95.20 3.34,-95.01 2.38,-94.43 1.79,-93.46 1.60,-92.10"/>
    </edge>
    <edge id=":j2_3" function="internal">
        <lane id=":j2_3_0" index="0" allow="pedestrian bicycle" speed="13.89" length="9.40" shape="4.70,-95.20 -4.70,-95.20"/>
        <lane id=":j2_3_1" index="1" allow="bus" speed="13.89" length="9.40" shape="4.70,-98.40 -4.70,-98.40"/>
    </edge>
    <edge id=":j2_5" function="internal">
        <lane id=":j2_5_0" index="0" allow="pedestrian bicycle" speed="13.89" length="9.40" shape="-4.70,-104.80 4.70,-104.80"/>
    </edge>
    <edge id=":j2_6" function="internal">
        <lane id=":j2_6_0" index="0" allow="pedestrian bicycle" speed="8.38" length="7.65" shape="-4.70,-104.80 -1.94,-104.01 0.03,-101.63 0.51,-100.00"/>
    </edge>
    <edge id=":j2_7" function="internal">
        <lane id=":j2_7_0" index="0" allow="bus" speed="13.89" length="9.40" shape="-4.70,-101.60 4.70,-101.60"/>
    </edge>
    <edge id=":j2_8" function="internal">
        <lane id=":j2_8_0" index="0" allow="pedestrian bicycle" speed="8.38" length="8.02" shape="0.51,-100.00 1.21,-97.66 1.60,-92.10"/>
    </edge>
    <edge id=":j3_0" function="internal">
        <lane id=":j3_0_0" index="0" allow="pedestrian bicycle" speed="5.04" length="5.00" shape="98.40,-92.10 98.21,-93.46 97.63,-94.42 96.66,-95.01 95.30,-95.20"/>
    </edge>
    <edge id=":j3_1" function="internal">
        <lane id=":j3_1_0" index="0" allow="pedestrian bicycle" speed="8.38" length="15.67" shape="98.40,-92.10 98.79,-97.66 99.98,-101.63 101.94,-104.01 104.70,-104.80"/>
    </edge>
    <edge id=":j3_2" function="internal">
        <lane id=":j3_2_0" index="0" allow="pedestrian bicycle" speed="5.04" length="5.00" shape="104.70,-95.20 103.34,-95.01 102.37,-94.43 101.79,-93.46 101.60,-92.10"/>
    </edge>
    <edge id=":j3_3" function="internal">
        <lane id=":j3_3_0" index="0" allow="pedestrian bicycle" speed="13.89" length="9.40" shape="104.70,-95.20 95.30,-95.20"/>
        <lane id=":j3_3_1" index="1" allow="bus" speed="13.89" length="9.40" shape="104.70,-98.40 95.30,-98.40"/>
    </edge>
    <edge id=":j3_5" function="internal">
        <lane id=":j3_5_0" index="0" allow="pedestrian bicycle" speed="13.89" length="9.40" shape="95.30,-104.80 104.70,-104.80"/>
    </edge>
    <edge id=":j3_6" function="internal">
        <lane id=":j3_6_0" index="0" allow="pedestrian bicycle" speed="8.38" length="7.65" shape="95.30,-104.80 98.06,-104.01 100.03,-101.63 100.51,-100.00"/>
    </edge>
    <edge id=":j3_7" function="internal">
        <lane id=":j3_7_0" index="0" allow="bus" speed="13.89" length="9.40" shape="95.30,-101.60 104.70,-101.60"/>
    </edge>
    <edge id=":j3_8" function="internal">
        <lane id=":j3_8_0" index="0" allow="pedestrian bicycle" speed="8.38" length="8.02" shape="100.51,-100.00 101.21,-97.66 101.60,-92.10"/>
    </edge>
    <edge id=":j5_0" function="internal">
        <lane id=":j5_0_0" index="0" allow="pedestrian bicycle" speed="5.04" length="5.00" shape="195.20,4.70 195.01,3.34 194.42,2.38 193.46,1.79 192.10,1.60"/>
    </edge>
    <edge id=":j5_1" function="internal">
        <lane id=":j5_1_0" index="0" allow="pedestrian bicycle" speed="13.89" length="9.40" shape="195.20,4.70 195.20,-4.70"/>
        <lane id=":j5_1_1" index="1" allow="bus" speed="13.89" length="9.40" shape="198.40,4.70 198.40,-4.70"/>
    </edge>
    <edge id=":j5_3" function="internal">
        <lane id=":j5_3_0" index="0" allow="pedestrian bicycle" speed="13.89" length="9.40" shape="204.80,-4.70 204.80,4.70"/>
    </edge>
    <edge id=":j5_4" function="internal">
        <lane id=":j5_4_0" index="0" allow="pedestrian bicycle" speed="8.38" length="7.65" shape="204.80,-4.70 204.01,-1.94 201.63,0.03 200.00,0.51"/>
    </edge>
    <edge id=":j5_5" function="internal">
        <lane id=":j5_5_0" index="0" allow="bus" speed="13.89" length="9.40" shape="201.60,-4.70 201.60,4.70"/>
    </edge>
    <edge id=":j5_8" function="internal">
        <lane id=":j5_8_0" index="0" allow="pedestrian bicycle" speed="8.38" length="8.02" shape="200.00,0.51 197.66,1.21 192.10,1.60"/>
    </edge>
    <edge id=":j5_6" function="internal">
        <lane id=":j5_6_0" index="0" allow="pedestrian bicycle" speed="5.04" length="5.00" shape="192.10,-1.60 193.46,-1.79 194.43,-2.37 195.01,-3.34 195.20,-4.70"/>
    </edge>
    <edge id=":j5_7" function="internal">
        <lane id=":j5_7_0" index="0" allow="pedestrian bicycle" speed="8.38" length="15.67" shape="192.10,-1.60 197.66,-1.21 201.63,-0.03 204.01,1.94 204.80,4.70"/>
    </edge>
    <edge id=":j6_0" function="internal">
        <lane id=":j6_0_0" index="0" allow="pedestrian bicycle" speed="5.04" length="5.00" shape="195.20,104.70 195.01,103.34 194.42,102.37 193.46,101.79 192.10,101.60"/>
    </edge>
    <edge id=":j6_1" function="internal">
        <lane id=":j6_1_0" index="0" allow="pedestrian bicycle" speed="13.89" length="9.40" shape="195.20,104.70 195.20,95.30"/>
        <lane id=":j6_1_1" index="1" allow="bus" speed="13.89" length="9.40" shape="198.40,104.70 198.40,95.30"/>
    </edge>
    <edge id=":j6_3" function="internal">
        <lane id=":j6_3_0" index="0" allow="pedestrian bicycle" speed="13.89" length="9.40" shape="204.80,95.30 204.80,104.70"/>
    </edge>
    <edge id=":j6_4" function="internal">
        <lane id=":j6_4_0" index="0" allow="pedestrian bicycle" speed="8.38" length="7.65" shape="204.80,95.30 204.01,98.06 201.63,100.03 200.00,100.51"/>
    </edge>
    <edge id=":j6_5" function="internal">
        <lane id=":j6_5_0" index="0" allow="bus" speed="13.89" length="9.40" shape="201.60,95.30 201.60,104.70"/>
    </edge>
    <edge id=":j6_8" function="internal">
        <lane id=":j6_8_0" index="0" allow="pedestrian bicycle" speed="8.38" length="8.02" shape="200.00,100.51 197.66,101.21 192.10,101.60"/>
    </edge>
    <edge id=":j6_6" function="internal">
        <lane id=":j6_6_0" index="0" allow="pedestrian bicycle" speed="5.04" length="5.00" shape="192.10,98.40 193.46,98.21 194.43,97.63 195.01,96.66 195.20,95.30"/>
    </edge>
    <edge id=":j6_7" function="internal">
        <lane id=":j6_7_0" index="0" allow="pedestrian bicycle" speed="8.38" length="15.67" shape="192.10,98.40 197.66,98.79 201.63,99.98 204.01,101.94 204.80,104.70"/>
    </edge>
    <edge id=":j7_0" function="internal">
        <lane id=":j7_0_0" index="0" allow="pedestrian bicycle" speed="8.96" length="18.06" shape="204.80,193.60 204.10,198.50 202.00,202.00 198.50,204.10 193.60,204.80"/>
    </edge>
    <edge id=":j7_1" function="internal">
        <lane id=":j7_1_0" index="0" allow="bus" speed="7.66" length="12.90" shape="201.60,193.60 201.10,197.10 199.60,199.60 197.10,201.10 193.60,201.60"/>
    </edge>
    <edge id=":j7_2" function="internal">
        <lane id=":j7_2_0" index="0" allow="pedestrian bicycle" speed="3.90" length="2.58" shape="193.60,195.20 194.30,195.10 194.80,194.80 195.10,194.30 195.20,193.60"/>
    </edge>
    <edge id=":j7_3" function="internal">
        <lane id=":j7_3_0" index="0" allow="bus" speed="6.08" length="7.74" shape="193.60,198.40 195.70,198.10 197.20,197.20 198.10,195.70 198.40,193.60"/>
    </edge>
    <edge id=":j8_0" function="internal">
        <lane id=":j8_0_0" index="0" allow="pedestrian bicycle" speed="13.89" length="9.40" shape="104.70,204.80 95.30,204.80"/>
    </edge>
    <edge id=":j8_1" function="internal">
        <lane id=":j8_1_0" index="0" allow="pedestrian bicycle" speed="8.38" length="7.65" shape="104.70,204.80 101.94,204.01 99.97,201.63 99.49,200.00"/>
    </edge>
    <edge id=":j8_2" function="internal">
        <lane id=":j8_2_0" index="0" allow="bus" speed="13.89" length="9.40" shape="104.70,201.60 95.30,201.60"/>
    </edge>
    <edge id=":j8_8" function="internal">
        <lane id=":j8_8_0" index="0" allow="pedestrian bicycle" speed="8.38" length="8.02" shape="99.49,200.00 98.79,197.66 98.40,192.10"/>
    </edge>
    <edge id=":j8_3" function="internal">
        <lane id=":j8_3_0" index="0" allow="pedestrian bicycle" speed="5.04" length="5.00" shape="101.60,192.10 101.79,193.46 102.37,194.43 103.34,195.01 104.70,195.20"/>
    </edge>
    <edge id=":j8_4" function="internal">
        <lane id=":j8_4_0" index="0" allow="pedestrian bicycle" speed="8.38" length="15.67" shape="101.60,192.10 101.21,197.66 100.02,201.63 98.06,204.01 95.30,204.80"/>
    </edge>
    <edge id=":j8_5" function="internal">
        <lane id=":j8_5_0" index="0" allow="pedestrian bicycle" speed="5.04" length="5.00" shape="95.30,195.20 96.66,195.01 97.63,194.42 98.21,193.46 98.40,192.10"/>
    </edge>
    <edge id=":j8_6" function="internal">
        <lane id=":j8_6_0" index="0" allow="pedestrian bicycle" speed="13.89" length="9.40" shape="95.30,195.20 104.70,195.20"/>
        <lane id=":j8_6_1" index="1" allow="bus" speed="13.89" length="9.40" shape="95.30,198.40 104.70,198.40"/>
    </edge>
    <edge id=":j9_0" function="internal">
        <lane id=":j9_0_0" index="0" allow="pedestrian bicycle" speed="13.89" length="9.40" shape="4.70,204.80 -4.70,204.80"/>
    </edge>
    <edge id=":j9_1" function="internal">
        <lane id=":j9_1_0" index="0" allow="pedestrian bicycle" speed="8.38" length="7.65" shape="4.70,204.80 1.94,204.01 -0.03,201.63 -0.51,200.00"/>
    </edge>
    <edge id=":j9_2" function="internal">
        <lane id=":j9_2_0" index="0" allow="bus" speed="13.89" length="9.40" shape="4.70,201.60 -4.70,201.60"/>
    </edge>
    <edge id=":j9_8" function="internal">
        <lane id=":j9_8_0" index="0" allow="pedestrian bicycle" speed="8.38" length="8.02" shape="-0.51,200.00 -1.21,197.66 -1.60,192.10"/>
    </edge>
    <edge id=":j9_3" function="internal">
        <lane id=":j9_3_0" index="0" allow="pedestrian bicycle" speed="5.04" length="5.00" shape="1.60,192.10 1.79,193.46 2.37,194.43 3.34,195.01 4.70,195.20"/>
    </edge>
    <edge id=":j9_4" function="internal">
        <lane id=":j9_4_0" index="0" allow="pedestrian bicycle" speed="8.38" length="15.67" shape="1.60,192.10 1.21,197.66 0.03,201.63 -1.94,204.01 -4.70,204.80"/>
    </edge>
    <edge id=":j9_5" function="internal">
        <lane id=":j9_5_0" index="0" allow="pedestrian bicycle" speed="5.04" length="5.00" shape="-4.70,195.20 -3.34,195.01 -2.37,194.42 -1.79,193.46 -1.60,192.10"/>
    </edge>
    <edge id=":j9_6" function="internal">
        <lane id=":j9_6_0" index="0" allow="pedestrian bicycle" speed="13.89" length="9.40" shape="-4.70,195.20 4.70,195.20"/>
        <lane id=":j9_6_1" index="1" allow="bus" speed="13.89" length="9.40" shape="-4.70,198.40 4.70,198.40"/>
    </edge>

    <edge id="-e1" from="j2" to="j1" priority="-1">
        <lane id="-e1_0" index="0" allow="pedestrian bicycle" speed="13.89" length="88.90" shape="-4.70,-95.20 -93.60,-95.20"/>
        <lane id="-e1_1" index="1" allow="bus" speed="13.89" length="88.90" shape="-4.70,-98.40 -93.60,-98.40"/>
    </edge>
    <edge id="-e10" from="j11" to="j10" priority="-1">
        <lane id="-e10_0" index="0" allow="pedestrian bicycle" speed="13.89" length="88.90" shape="-95.20,104.70 -95.20,193.60"/>