<?xml version="1.0" encoding="UTF-8"?>
<!-- generated on 2020-01-30 20:53:41.828516 by randomTrips.py v1_4_0+0000-d7c9afb42e
  options: -n D:\Documents\MIT\UROP\IAP20\SUMO\SUMO-3x3\noCars.net.xml -e 86400 -p 20 <doubleminus>allow-fringe <doubleminus>pedestrians <doubleminus>persontrips
-->
<routes xmlns:xsi="http://www.w3.org/2001/XMLSchema-instance" xsi:noNamespaceSchemaLocation="http://sumo.dlr.de/xsd/routes_file.xsd">
    <person id="0" depart="0.00">
        <personTrip from="e17" to="-e15"/>
    </person>
    <person id="1" depart="20.00">
        <personTrip from="e14" to="-e21"/>
    </person>
    <person id="2" depart="40.00">
        <personTrip from="e14" to="-e10"/>
    </person>
    <person id="3" depart="60.00">
        <personTrip from="-e8" to="-e10"/>
    </person>
    <person id="4" depart="80.00">
        <personTrip from="-e19" to="e18"/>
    </person>
    <person id="5" depart="100.00">
        <personTrip from="e5" to="e16"/>
    </person>
    <person id="6" depart="120.00">
        <personTrip from="e21" to="e1"/>
    </person>
    <person id="7" depart="140.00">
        <personTrip from="e20" to="e11"/>
    </person>
    <person id="8" depart="160.00">
        <personTrip from="e8" to="-e23"/>
    </person>
    <person id="9" depart="180.00">
        <personTrip from="e11" to="e10"/>
    </person>
    <person id="10" depart="200.00">
        <personTrip from="-e11" to="-e4"/>
    </person>
    <person id="11" depart="220.00">
        <personTrip from="e4" to="-e18"/>
    </person>
    <person id="12" depart="240.00">
        <personTrip from="-e11" to="-e5"/>
    </person>
    <person id="13" depart="260.00">
        <personTrip from="e5" to="-e14"/>
    </person>
    <person id="14" depart="280.00">
        <personTrip from="e15" to="e9"/>
    </person>
    <person id="15" depart="300.00">
        <personTrip from="e6" to="-e10"/>
    </person>
    <person id="16" depart="320.00">
        <personTrip from="e22" to="-e15"/>
    </person>
    <person id="17" depart="340.00">
        <personTrip from="-e24" to="e18"/>
    </person>
    <person id="18" depart="360.00">
        <personTrip from="-e18" to="e7"/>
    </person>
    <person id="19" depart="380.00">
        <personTrip from="-e12" to="e14"/>
    </person>
    <person id="20" depart="400.00">
        <personTrip from="e15" to="-e10"/>
    </person>
    <person id="21" depart="420.00">
        <personTrip from="e21" to="e10"/>
    </person>
    <person id="22" depart="440.00">
        <personTrip from="e7" to="-e15"/>
    </person>
    <person id="23" depart="460.00">
        <personTrip from="-e5" to="-e20"/>
    </person>
    <person id="24" depart="480.00">
        <personTrip from="e3" to="-e8"/>
    </person>
    <person id="25" depart="500.00">
        <personTrip from="e10" to="e14"/>
    </person>
    <person id="26" depart="520.00">
        <personTrip from="e8" to="-e22"/>
    </person>
    <person id="27" depart="540.00">
        <personTrip from="e7" to="-e13"/>
    </person>
    <person id="28" depart="560.00">
        <personTrip from="e23" to="-e7"/>
    </person>
    <person id="29" depart="580.00">
        <personTrip from="-e9" to="e21"/>
    </person>
    <person id="30" depart="600.00">
        <personTrip from="e24" to="e24"/>
    </person>
    <person id="31" depart="620.00">
        <personTrip from="-e16" to="-e18"/>
    </person>
    <person id="32" depart="640.00">
        <personTrip from="-e17" to="-e5"/>
    </person>
    <person id="33" depart="660.00">
        <personTrip from="e3" to="-e20"/>
    </person>
    <person id="34" depart="680.00">
        <personTrip from="-e8" to="-e19"/>
    </person>
    <person id="35" depart="700.00">
        <personTrip from="e1" to="-e7"/>
    </person>
    <person id="36" depart="720.00">
        <personTrip from="e15" to="-e9"/>
    </person>
    <person id="37" depart="740.00">
        <personTrip from="e21" to="-e5"/>
    </person>
    <person id="38" depart="760.00">
        <personTrip from="-e21" to="e16"/>
    </person>
    <person id="39" depart="780.00">
        <personTrip from="e23" to="e7"/>
    </person>
    <person id="40" depart="800.00">
        <personTrip from="-e10" to="e8"/>
    </person>
    <person id="41" depart="820.00">
        <personTrip from="e7" to="e19"/>
    </person>
    <person id="42" depart="840.00">
        <personTrip from="e3" to="-e16"/>
    </person>
    <person id="43" depart="860.00">
        <personTrip from="-e22" to="e10"/>
    </person>
    <person id="44" depart="880.00">
        <personTrip from="e11" to="-e20"/>
    </person>
    <person id="45" depart="900.00">
        <personTrip from="e3" to="e6"/>
    </person>
    <person id="46" depart="920.00">
        <personTrip from="-e18" to="e1"/>
    </person>
    <person id="47" depart="940.00">
        <personTrip from="-e22" to="e1"/>
    </person>
    <person id="48" depart="960.00">
        <personTrip from="-e20" to="-e18"/>
    </person>
    <person id="49" depart="980.00">
        <personTrip from="e18" to="e13"/>
    </person>
    <person id="50" depart="1000.00">
        <personTrip from="e23" to="-e20"/>
    </person>
    <person id="51" depart="1020.00">
        <personTrip from="e12" to="-e2"/>
    </person>
    <person id="52" depart="1040.00">
        <personTrip from="e7" to="e20"/>
    </person>
    <person id="53" depart="1060.00">
        <personTrip from="-e12" to="-e24"/>
    </person>
    <person id="54" depart="1080.00">
        <personTrip from="e15" to="e13"/>
    </person>
    <person id="55" depart="1100.00">
        <personTrip from="-e18" to="-e6"/>
    </person>
    <person id="56" depart="1120.00">
        <personTrip from="-e1" to="-e24"/>
    </person>
    <person id="57" depart="1140.00">
        <personTrip from="e14" to="e7"/>
    </person>
    <person id="58" depart="1160.00">
        <personTrip from="-e13" to="e21"/>
    </person>
    <person id="59" depart="1180.00">
        <personTrip from="-e16" to="e23"/>
    </person>
    <person id="60" depart="1200.00">
        <personTrip from="e23" to="-e15"/>
    </person>
    <person id="61" depart="1220.00">
        <personTrip from="-e21" to="e22"/>
    </person>
    <person id="62" depart="1240.00">
        <personTrip from="e12" to="e14"/>
    </person>
    <person id="63" depart="1260.00">
        <personTrip from="e10" to="e11"/>
    </person>
    <person id="64" depart="1280.00">
        <personTrip from="e18" to="e15"/>
    </person>
    <person id="65" depart="1300.00">
        <personTrip from="-e4" to="-e8"/>
    </person>
    <person id="66" depart="1320.00">
        <personTrip from="e3" to="e2"/>
    </person>
    <person id="67" depart="1340.00">
        <personTrip from="e17" to="-e2"/>
    </person>
    <person id="68" depart="1360.00">
        <personTrip from="-e24" to="e1"/>
    </person>
    <person id="69" depart="1380.00">
        <personTrip from="-e11" to="-e18"/>
    </person>
    <person id="70" depart="1400.00">
        <personTrip from="-e10" to="e21"/>
    </person>
    <person id="71" depart="1420.00">
        <personTrip from="e6" to="-e22"/>
    </person>
    <person id="72" depart="1440.00">
        <personTrip from="-e20" to="-e17"/>
    </person>
    <person id="73" depart="1460.00">
        <personTrip from="-e11" to="-e15"/>
    </person>
    <person id="74" depart="1480.00">
        <personTrip from="-e6" to="-e2"/>
    </person>
    <person id="75" depart="1500.00">
        <personTrip from="-e23" to="e10"/>
    </person>
    <person id="76" depart="1520.00">
        <personTrip from="-e17" to="e19"/>
    </person>
    <person id="77" depart="1540.00">
        <personTrip from="e21" to="-e6"/>
    </person>
    <person id="78" depart="1560.00">
        <personTrip from="e11" to="e2"/>
    </person>
    <person id="79" depart="1580.00">
        <personTrip from="-e4" to="-e22"/>
    </person>
    <person id="80" depart="1600.00">
        <personTrip from="-e1" to="e5"/>
    </person>
    <person id="81" depart="1620.00">
        <personTrip from="e8" to="e20"/>
    </person>
    <person id="82" depart="1640.00">
        <personTrip from="-e23" to="-e4"/>
    </person>
    <person id="83" depart="1660.00">
        <personTrip from="e11" to="e9"/>
    </person>
    <person id="84" depart="1680.00">
        <personTrip from="-e19" to="e7"/>
    </person>
    <person id="85" depart="1700.00">
        <personTrip from="-e23" to="-e15"/>
    </person>
    <person id="86" depart="1720.00">
        <personTrip from="e12" to="-e24"/>
    </person>
    <person id="87" depart="1740.00">
        <personTrip from="e11" to="e21"/>
    </person>
    <person id="88" depart="1760.00">
        <personTrip from="e15" to="-e21"/>
    </person>
    <person id="89" depart="1780.00">
        <personTrip from="-e7" to="e11"/>
    </person>
    <person id="90" depart="1800.00">
        <personTrip from="e14" to="e10"/>
    </person>
    <person id="91" depart="1820.00">
        <personTrip from="-e4" to="-e23"/>
    </person>
    <person id="92" depart="1840.00">
        <personTrip from="-e7" to="e19"/>
    </person>
    <person id="93" depart="1860.00">
        <personTrip from="-e24" to="e23"/>
    </person>
    <person id="94" depart="1880.00">
        <personTrip from="-e9" to="e21"/>
    </person>
    <person id="95" depart="1900.00">
        <personTrip from="-e24" to="-e5"/>
    </person>
    <person id="96" depart="1920.00">
        <personTrip from="e14" to="e3"/>
    </person>
    <person id="97" depart="1940.00">
        <personTrip from="-e7" to="e16"/>
    </person>
    <person id="98" depart="1960.00">
        <personTrip from="-e11" to="e22"/>
    </person>
    <person id="99" depart="1980.00">
        <personTrip from="-e20" to="e8"/>
    </person>
    <person id="100" depart="2000.00">
        <personTrip from="-e15" to="-e10"/>
    </person>
    <person id="101" depart="2020.00">
        <personTrip from="e21" to="e2"/>
    </person>
    <person id="102" depart="2040.00">
        <personTrip from="e4" to="-e7"/>
    </person>
    <person id="103" depart="2060.00">
        <personTrip from="-e9" to="e6"/>
    </person>
    <person id="104" depart="2080.00">
        <personTrip from="e22" to="e12"/>
    </person>
    <person id="105" depart="2100.00">
        <personTrip from="-e11" to="e8"/>
    </person>
    <person id="106" depart="2120.00">
        <personTrip from="-e8" to="-e7"/>
    </person>
    <person id="107" depart="2140.00">
        <personTrip from="e6" to="-e13"/>
    </person>
    <person id="108" depart="2160.00">
        <personTrip from="-e2" to="-e11"/>
    </person>
    <person id="109" depart="2180.00">
        <personTrip from="-e3" to="e24"/>
    </person>
    <person id="110" depart="2200.00">
        <personTrip from="e22" to="-e15"/>
    </person>
    <person id="111" depart="2220.00">
        <personTrip from="e21" to="e14"/>
    </person>
    <person id="112" depart="2240.00">
        <personTrip from="e20" to="-e11"/>
    </person>
    <person id="113" depart="2260.00">
        <personTrip from="-e17" to="-e22"/>
    </person>
    <person id="114" depart="2280.00">
        <personTrip from="-e12" to="e14"/>
    </person>
    <person id="115" depart="2300.00">
        <personTrip from="e9" to="-e7"/>
    </person>
    <person id="116" depart="2320.00">
        <personTrip from="-e10" to="-e6"/>
    </person>
    <person id="117" depart="2340.00">
        <personTrip from="-e12" to="e9"/>
    </person>
    <person id="118" depart="2360.00">
        <personTrip from="e17" to="e21"/>
    </person>
    <person id="119" depart="2380.00">
        <personTrip from="e15" to="-e1"/>
    </person>
    <person id="120" depart="2400.00">
        <personTrip from="e11" to="e11"/>
    </person>
    <person id="121" depart="2420.00">
        <personTrip from="e15" to="e2"/>
    </person>
    <person id="122" depart="2440.00">
        <personTrip from="-e6" to="e21"/>
    </person>
    <person id="123" depart="2460.00">
        <personTrip from="e7" to="-e14"/>
    </person>
    <person id="124" depart="2480.00">
        <personTrip from="e6" to="e15"/>
    </person>
    <person id="125" depart="2500.00">
        <personTrip from="-e3" to="-e9"/>
    </person>
    <person id="126" depart="2520.00">
        <personTrip from="-e3" to="e11"/>
    </person>
    <person id="127" depart="2540.00">
        <personTrip from="-e14" to="-e23"/>
    </person>
    <person id="128" depart="2560.00">
        <personTrip from="-e15" to="e9"/>
    </person>
    <person id="129" depart="2580.00">
        <personTrip from="e11" to="e13"/>
    </person>
    <person id="130" depart="2600.00">
        <personTrip from="e1" to="e23"/>
    </person>
    <person id="131" depart="2620.00">
        <personTrip from="-e16" to="e21"/>
    </person>
    <person id="132" depart="2640.00">
        <personTrip from="e16" to="-e13"/>
    </person>
    <person id="133" depart="2660.00">
        <personTrip from="-e22" to="e2"/>
    </person>
    <person id="134" depart="2680.00">
        <personTrip from="e18" to="-e21"/>
    </person>
    <person id="135" depart="2700.00">
        <personTrip from="-e20" to="e15"/>
    </person>
    <person id="136" depart="2720.00">
        <personTrip from="e8" to="e18"/>
    </person>
    <person id="137" depart="2740.00">
        <personTrip from="-e16" to="-e20"/>
    </person>
    <person id="138" depart="2760.00">
        <personTrip from="-e4" to="e17"/>
    </person>
    <person id="139" depart="2780.00">
        <personTrip from="-e8" to="-e5"/>
    </person>
    <person id="140" depart="2800.00">
        <personTrip from="e14" to="-e7"/>
    </person>
    <person id="141" depart="2820.00">
        <personTrip from="-e23" to="e15"/>
    </person>
    <person id="142" depart="2840.00">
        <personTrip from="-e18" to="-e4"/>
    </person>
    <person id="143" depart="2860.00">
        <personTrip from="-e4" to="e13"/>
    </person>
    <person id="144" depart="2880.00">
        <personTrip from="e2" to="e5"/>
    </person>
    <person id="145" depart="2900.00">
        <personTrip from="-e4" to="e13"/>
    </person>
    <person id="146" depart="2920.00">
        <personTrip from="-e14" to="e3"/>
    </person>
    <person id="147" depart="2940.00">
        <personTrip from="e22" to="-e14"/>
    </person>
    <person id="148" depart="2960.00">
        <personTrip from="e24" to="-e15"/>
    </person>
    <person id="149" depart="2980.00">
        <personTrip from="-e12" to="e19"/>
    </person>
    <person id="150" depart="3000.00">
        <personTrip from="-e10" to="e6"/>
    </person>
    <person id="151" depart="3020.00">
        <personTrip from="e9" to="e16"/>
    </person>
    <person id="152" depart="3040.00">
        <personTrip from="e12" to="-e20"/>
    </person>
    <person id="153" depart="3060.00">
        <personTrip from="e6" to="e17"/>
    </person>
    <person id="154" depart="3080.00">
        <personTrip from="e3" to="e17"/>
    </person>
    <person id="155" depart="3100.00">
        <personTrip from="e19" to="e21"/>
    </person>
    <person id="156" depart="3120.00">
        <personTrip from="e12" to="-e9"/>
    </person>
    <person id="157" depart="3140.00">
        <personTrip from="-e21" to="-e8"/>
    </person>
    <person id="158" depart="3160.00">
        <personTrip from="-e9" to="e2"/>
    </person>
    <person id="159" depart="3180.00">
        <personTrip from="-e19" to="-e14"/>
    </person>
    <person id="160" depart="3200.00">
        <personTrip from="-e14" to="-e1"/>
    </person>
    <person id="161" depart="3220.00">
        <personTrip from="-e8" to="e5"/>
    </person>
    <person id="162" depart="3240.00">
        <personTrip from="e11" to="e18"/>
    </person>
    <person id="163" depart="3260.00">
        <personTrip from="-e11" to="e5"/>
    </person>
    <person id="164" depart="3280.00">
        <personTrip from="e11" to="e21"/>
    </person>
    <person id="165" depart="3300.00">
        <personTrip from="e17" to="e1"/>
    </person>
    <person id="166" depart="3320.00">
        <personTrip from="-e10" to="e2"/>
    </person>
    <person id="167" depart="3340.00">
        <personTrip from="-e6" to="-e9"/>
    </person>
    <person id="168" depart="3360.00">
        <personTrip from="-e8" to="e10"/>
    </person>
    <person id="169" depart="3380.00">
        <personTrip from="e22" to="e1"/>
    </person>
    <person id="170" depart="3400.00">
        <personTrip from="e17" to="e5"/>
    </person>
    <person id="171" depart="3420.00">
        <personTrip from="-e14" to="e24"/>
    </person>
    <person id="172" depart="3440.00">
        <personTrip from="-e24" to="e11"/>
    </person>
    <person id="173" depart="3460.00">
        <personTrip from="e21" to="-e3"/>
    </person>
    <person id="174" depart="3480.00">
        <personTrip from="-e18" to="e19"/>
    </person>
    <person id="175" depart="3500.00">
        <personTrip from="-e18" to="-e17"/>
    </person>
    <person id="176" depart="3520.00">
        <personTrip from="-e9" to="-e15"/>
    </person>
    <person id="177" depart="3540.00">
        <personTrip from="-e12" to="-e15"/>
    </person>
    <person id="178" depart="3560.00">
        <personTrip from="-e23" to="e23"/>
    </person>
    <person id="179" depart="3580.00">
        <personTrip from="e8" to="-e17"/>
    </person>
    <person id="180" depart="3600.00">
        <personTrip from="-e10" to="-e16"/>
    </person>
    <person id="181" depart="3620.00">
        <personTrip from="-e2" to="e21"/>
    </person>
    <person id="182" depart="3640.00">
        <personTrip from="-e17" to="e4"/>
    </person>
    <person id="183" depart="3660.00">
        <personTrip from="e4" to="-e22"/>
    </person>
    <person id="184" depart="3680.00">
        <personTrip from="-e8" to="-e23"/>
    </person>
    <person id="185" depart="3700.00">
        <personTrip from="e13" to="-e18"/>
    </person>
    <person id="186" depart="3720.00">
        <personTrip from="-e20" to="e10"/>
    </person>
    <person id="187" depart="3740.00">
        <personTrip from="-e5" to="-e13"/>
    </person>
    <person id="188" depart="3760.00">
        <personTrip from="e12" to="-e4"/>
    </person>
    <person id="189" depart="3780.00">
        <personTrip from="-e13" to="e10"/>
    </person>
    <person id="190" depart="3800.00">
        <personTrip from="e18" to="-e23"/>
    </person>
    <person id="191" depart="3820.00">
        <personTrip from="-e8" to="-e24"/>
    </person>
    <person id="192" depart="3840.00">
        <personTrip from="-e13" to="e1"/>
    </person>
    <person id="193" depart="3860.00">
        <personTrip from="e13" to="e8"/>
    </person>
    <person id="194" depart="3880.00">
        <personTrip from="-e1" to="e6"/>
    </person>
    <person id="195" depart="3900.00">
        <personTrip from="-e5" to="e3"/>
    </person>
    <person id="196" depart="3920.00">
        <personTrip from="-e8" to="-e16"/>
    </person>
    <person id="197" depart="3940.00">
        <personTrip from="e5" to="-e13"/>
    </person>
    <person id="198" depart="3960.00">
        <personTrip from="e9" to="-e11"/>
    </person>
    <person id="199" depart="3980.00">
        <personTrip from="-e7" to="-e21"/>
    </person>
    <person id="200" depart="4000.00">
        <personTrip from="-e7" to="e20"/>
    </person>
    <person id="201" depart="4020.00">
        <personTrip from="-e18" to="-e21"/>
    </person>
    <person id="202" depart="4040.00">
        <personTrip from="e21" to="e5"/>
    </person>
    <person id="203" depart="4060.00">
        <personTrip from="e21" to="-e4"/>
    </person>
    <person id="204" depart="4080.00">
        <personTrip from="e14" to="e20"/>
    </person>
    <person id="205" depart="4100.00">
        <personTrip from="-e7" to="e18"/>
    </person>
    <person id="206" depart="4120.00">
        <personTrip from="-e17" to="e1"/>
    </person>
    <person id="207" depart="4140.00">
        <personTrip from="e9" to="e10"/>
    </person>
    <person id="208" depart="4160.00">
        <personTrip from="-e17" to="-e8"/>
    </person>
    <person id="209" depart="4180.00">
        <personTrip from="-e3" to="e13"/>
    </person>
    <person id="210" depart="4200.00">
        <personTrip from="-e7" to="e10"/>
    </person>
    <person id="211" depart="4220.00">
        <personTrip from="e23" to="-e15"/>
    </person>
    <person id="212" depart="4240.00">
        <personTrip from="e17" to="-e17"/>
    </person>
    <person id="213" depart="4260.00">
        <personTrip from="e12" to="e10"/>
    </person>
    <person id="214" depart="4280.00">
        <personTrip from="e18" to="e13"/>
    </person>
    <person id="215" depart="4300.00">
        <personTrip from="-e7" to="e5"/>
    </person>
    <person id="216" depart="4320.00">
        <personTrip from="-e13" to="-e3"/>
    </person>
    <person id="217" depart="4340.00">
        <personTrip from="-e7" to="-e20"/>
    </person>
    <person id="218" depart="4360.00">
        <personTrip from="-e11" to="-e9"/>
    </person>
    <person id="219" depart="4380.00">
        <personTrip from="-e23" to="-e4"/>
    </person>
    <person id="220" depart="4400.00">
        <personTrip from="e21" to="e24"/>
    </person>
    <person id="221" depart="4420.00">
        <personTrip from="e5" to="e22"/>
    </person>
    <person id="222" depart="4440.00">
        <personTrip from="e6" to="-e19"/>
    </person>
    <person id="223" depart="4460.00">
        <personTrip from="e19" to="e2"/>
    </person>
    <person id="224" depart="4480.00">
        <personTrip from="e2" to="e19"/>
    </person>
    <person id="225" depart="4500.00">
        <personTrip from="-e4" to="e22"/>
    </person>
    <person id="226" depart="4520.00">
        <personTrip from="e19" to="-e17"/>
    </person>
    <person id="227" depart="4540.00">
        <personTrip from="-e16" to="-e4"/>
    </person>
    <person id="228" depart="4560.00">
        <personTrip from="e6" to="-e13"/>
    </person>
    <person id="229" depart="4580.00">
        <personTrip from="-e16" to="e23"/>
    </person>
    <person id="230" depart="4600.00">
        <personTrip from="-e18" to="e16"/>
    </person>
    <person id="231" depart="4620.00">
        <personTrip from="-e1" to="-e2"/>
    </person>
    <person id="232" depart="4640.00">
        <personTrip from="-e13" to="-e2"/>
    </person>
    <person id="233" depart="4660.00">
        <personTrip from="e21" to="-e15"/>
    </person>
    <person id="234" depart="4680.00">
        <personTrip from="e19" to="e4"/>
    </person>
    <person id="235" depart="4700.00">
        <personTrip from="-e15" to="e19"/>
    </person>
    <person id="236" depart="4720.00">
        <personTrip from="e23" to="e13"/>
    </person>
    <person id="237" depart="4740.00">
        <personTrip from="e12" to="e19"/>
    </person>
    <person id="238" depart="4760.00">
        <personTrip from="e22" to="e23"/>
    </person>
    <person id="239" depart="4780.00">
        <personTrip from="-e5" to="e14"/>
    </person>
    <person id="240" depart="4800.00">
        <personTrip from="-e15" to="e23"/>
    </person>
    <person id="241" depart="4820.00">
        <personTrip from="e15" to="-e3"/>
    </person>
    <person id="242" depart="4840.00">
        <personTrip from="-e22" to="e23"/>
    </person>
    <person id="243" depart="4860.00">
        <personTrip from="e17" to="e10"/>
    </person>
    <person id="244" depart="4880.00">
        <personTrip from="-e16" to="-e8"/>
    </person>
    <person id="245" depart="4900.00">
        <personTrip from="-e14" to="-e19"/>
    </person>
    <person id="246" depart="4920.00">
        <personTrip from="-e4" to="-e10"/>
    </person>
    <person id="247" depart="4940.00">
        <personTrip from="e11" to="-e18"/>
    </person>
    <person id="248" depart="4960.00">
        <personTrip from="-e22" to="-e15"/>
    </person>
    <person id="249" depart="4980.00">
        <personTrip from="-e24" to="e24"/>
    </person>
    <person id="250" depart="5000.00">
        <personTrip from="-e15" to="e24"/>
    </person>
    <person id="251" depart="5020.00">
        <personTrip from="e13" to="-e18"/>
    </person>
    <person id="252" depart="5040.00">
        <personTrip from="-e4" to="-e20"/>
    </person>
    <person id="253" depart="5060.00">
        <personTrip from="-e8" to="e23"/>
    </person>
    <person id="254" depart="5080.00">
        <personTrip from="e22" to="e21"/>
    </person>
    <person id="255" depart="5100.00">
        <personTrip from="-e14" to="e11"/>
    </person>
    <person id="256" depart="5120.00">
        <personTrip from="-e22" to="e16"/>
    </person>
    <person id="257" depart="5140.00">
        <personTrip from="-e4" to="-e24"/>
    </person>
    <person id="258" depart="5160.00">
        <personTrip from="e7" to="e10"/>
    </person>
    <person id="259" depart="5180.00">
        <personTrip from="-e11" to="e24"/>
    </person>
    <person id="260" depart="5200.00">
        <personTrip from="e23" to="-e9"/>
    </person>
    <person id="261" depart="5220.00">
        <personTrip from="-e3" to="e6"/>
    </person>
    <person id="262" depart="5240.00">
        <personTrip from="-e10" to="-e6"/>
    </person>
    <person id="263" depart="5260.00">
        <personTrip from="-e23" to="-e5"/>
    </person>
    <person id="264" depart="5280.00">
        <personTrip from="e21" to="e2"/>
    </person>
    <person id="265" depart="5300.00">
        <personTrip from="e20" to="-e21"/>
    </person>
    <person id="266" depart="5320.00">
        <personTrip from="-e8" to="-e13"/>
    </person>
    <person id="267" depart="5340.00">
        <personTrip from="-e5" to="-e4"/>
    </person>
    <person id="268" depart="5360.00">
        <personTrip from="-e22" to="e12"/>
    </person>
    <person id="269" depart="5380.00">
        <personTrip from="e7" to="-e3"/>
    </person>
    <person id="270" depart="5400.00">
        <personTrip from="e24" to="-e5"/>
    </person>
    <person id="271" depart="5420.00">
        <personTrip from="-e10" to="-e11"/>
    </person>
    <person id="272" depart="5440.00">
        <personTrip from="e21" to="e15"/>
    </person>
    <person id="273" depart="5460.00">
        <personTrip from="-e10" to="-e17"/>
    </person>
    <person id="274" depart="5480.00">
        <personTrip from="e6" to="e14"/>
    </person>
    <person id="275" depart="5500.00">
        <personTrip from="e6" to="e3"/>
    </person>
    <person id="276" depart="5520.00">
        <personTrip from="-e4" to="e18"/>
    </person>
    <person id="277" depart="5540.00">
        <personTrip from="e11" to="e4"/>
    </person>
    <person id="278" depart="5560.00">
        <personTrip from="-e4" to="-e9"/>
    </person>
    <person id="279" depart="5580.00">
        <personTrip from="-e4" to="e8"/>
    </person>
    <person id="280" depart="5600.00">
        <personTrip from="-e14" to="e14"/>
    </person>
    <person id="281" depart="5620.00">
        <personTrip from="-e21" to="-e10"/>
    </person>
    <person id="282" depart="5640.00">
        <personTrip from="-e3" to="e3"/>
    </person>
    <person id="283" depart="5660.00">
        <personTrip from="e4" to="e6"/>
    </person>
    <person id="284" depart="5680.00">
        <personTrip from="-e23" to="-e8"/>
    </person>
    <person id="285" depart="5700.00">
        <personTrip from="e2" to="-e4"/>
    </person>
    <person id="286" depart="5720.00">
        <personTrip from="-e3" to="-e15"/>
    </person>
    <person id="287" depart="5740.00">
        <personTrip from="-e7" to="e15"/>
    </person>
    <person id="288" depart="5760.00">
        <personTrip from="-e12" to="e4"/>
    </person>
    <person id="289" depart="5780.00">
        <personTrip from="-e10" to="e2"/>
    </person>
    <person id="290" depart="5800.00">
        <personTrip from="-e8" to="e22"/>
    </person>
    <person id="291" depart="5820.00">
        <personTrip from="-e10" to="-e6"/>
    </person>
    <person id="292" depart="5840.00">
        <personTrip from="e6" to="-e1"/>
    </person>
    <person id="293" depart="5860.00">
        <personTrip from="e5" to="e18"/>
    </person>
    <person id="294" depart="5880.00">
        <personTrip from="e12" to="e8"/>
    </person>
    <person id="295" depart="5900.00">
        <personTrip from="-e11" to="e24"/>
    </person>
    <person id="296" depart="5920.00">
        <personTrip from="e12" to="e8"/>
    </person>
    <person id="297" depart="5940.00">
        <personTrip from="e2" to="-e3"/>
    </person>
    <person id="298" depart="5960.00">
        <personTrip from="e5" to="-e4"/>
    </person>
    <person id="299" depart="5980.00">
        <personTrip from="e13" to="-e3"/>
    </person>
    <person id="300" depart="6000.00">
        <personTrip from="-e11" to="e20"/>
    </person>
    <person id="301" depart="6020.00">
        <personTrip from="e21" to="e3"/>
    </person>
    <person id="302" depart="6040.00">