<routes>
    <vType id="bike" vClass="pedestrian" guiShape="bicycle" length="2" width="0.7"
        maxSpeed="24" probability="0.2"/>
    <vType id="ped" vClass="pedestrian" probability="0.8"/>
    <vTypeDistribution id="swDist" vTypes="bike ped"/>
</routes>