<routes>
    <vType id="bus" vClass="bus"/>

    <flow id="0" type="bus" color="1,1,0" from="e1" to="e1" begin="0" end="86400" period="60" line="101">
<!--       stop[busStop="stop_e$" duration="20"]*12 -->
        <stop busStop="stop_e1" until="30"/>
        <stop busStop="stop_e2" until="50"/>
        <stop busStop="stop_e3" until="70"/>
        <stop busStop="stop_e4" until="90"/>
        <stop busStop="stop_e5" until="110"/>
        <stop busStop="stop_e6" until="130"/>
        <stop busStop="stop_e7" until="150"/>
        <stop busStop="stop_e8" until="170"/>
        <stop busStop="stop_e9" until="190"/>
        <stop busStop="stop_e10" until="210"/>
        <stop busStop="stop_e11" until="230"/>
        <stop busStop="stop_e12" until="250"/>
    </flow>
</routes>