<?xml version="1.0" encoding="UTF-8"?>

<!-- generated on Tue Jan 28 14:32:56 2020 by Eclipse SUMO netedit Version 1.4.0
<configuration xmlns:xsi="http://www.w3.org/2001/XMLSchema-instance" xsi:noNamespaceSchemaLocation="http://sumo.dlr.de/xsd/netconvertConfiguration.xsd">

    <input>
        <sumo-net-file value="/Users/ptinn/Documents/SUMO-3x3/cooperH.net.xml"/>
    </input>

    <output>
        <output-file value="/Users/ptinn/Documents/SUMO-3x3/cooperH.net.xml"/>
    </output>

    <processing>
        <geometry.min-radius.fix.railways value="false"/>
        <geometry.max-grade.fix value="false"/>
        <offset.disable-normalization value="true"/>
        <lefthand value="false"/>
    </processing>

    <junctions>
        <no-turnarounds value="true"/>
        <junctions.corner-detail value="5"/>
        <junctions.limit-turn-speed value="5.5"/>
        <rectangular-lane-cut value="false"/>
    </junctions>

    <pedestrian>
        <walkingareas value="false"/>
    </pedestrian>

    <netedit>
        <additional-files value="/Users/ptinn/Documents/SUMO-3x3/cooperH.add.xml"/>
    </netedit>

    <visualisation>
        <registry-viewport value="true"/>
    </visualisation>

    <report>
        <aggregate-warnings value="5"/>
    </report>

</configuration>
-->

<additional xmlns:xsi="http://www.w3.org/2001/XMLSchema-instance" xsi:noNamespaceSchemaLocation="http://sumo.dlr.de/xsd/additional_file.xsd">
    <poi id="Harlem" color="red" layer="202.00" x="22" y="240" imgFile="./img/apartment.png" width="25.00" height="25.00"/>
    <poi id="Central_Park" color="red" layer="202.00" x="22" y="140" imgFile="./img/trees.png" width="25.00" height="25.00"/>
    <poi id="Upper_West" color="red" layer="202.00" x="20" y="25" imgFile="./img/apartment.png" width="25.00" height="25.00"/>
    <poi id="Upper_East" color="red" layer="202.00" x="50" y="276" imgFile="./img/skyscrapper.png" width="25.00" height="25.00"/>
    <poi id="Museum" color="red" layer="202.00" x="50" y="175" imgFile="./img/museum.png" width="25.00" height="25.00"/>
    <poi id="Garment_District" color="red" layer="202.00" x="75" y="55" imgFile="./img/industry.png" width="25.00" height="25.00"/>
    <poi id="United_Nations" color="red" layer="202.00" x="125" y="225" imgFile="./img/unitedNation.png" width="25.00" height="25.00"/>
    <poi id="Graemacy" color="red" layer="202.00" x="125" y="125" imgFile="./img/graemacy.png" width="25.00" height="25.00"/>
    <poi id="Chelsea" color="red" layer="202.00" x="125" y="25" imgFile="./img/shop.png" width="25.00" height="25.00"/>
    <poi id="Hospital" color="red" layer="202.00" x="170" y="275" imgFile="./img/hospital.png" width="25.00" height="25.00"/>
    <poi id="Midtown" color="red" layer="202.00" x="170" y="175" imgFile="./img/house.png" width="25.00" height="25.00"/>
    <poi id="Greenwich" color="red" layer="202.00" x="170" y="75" imgFile="./img/house.png" width="25.00" height="25.00"/>
    <poi id="East_Village" color="red" layer="202.00" x="225" y="250" imgFile="./img/house.png" width="25.00" height="25.00"/>
    <poi id="City_Hall" color="red" layer="202.00" x="225" y="150" imgFile="./img/city_hall.png" width="25.00" height="25.00"/>
    <poi id="Tribeca" color="red" layer="202.00" x="225" y="25" imgFile="./img/shop.png" width="25.00" height="25.00"/>
    <poi id="Lower_East" color="red" layer="202.00" x="275" y="250" imgFile="./img/apartment.png" width="25.00" height="25.00"/>
    <poi id="Chinatown" color="red" layer="202.00" x="275" y="175" imgFile="./img/chinatown.png" width="25.00" height="25.00"/>
    <poi id="Wall_Street" color="red" layer="202.00" x="275" y="50" imgFile="./img/wallstreet.png" width="25.00" height="25.00"/>



</additional>
