<?xml version="1.0" encoding="UTF-8"?>

<!-- generated on Tue Jan 28 11:53:58 2020 by Eclipse SUMO activitygen Version 1.4.0
<configuration xmlns:xsi="http://www.w3.org/2001/XMLSchema-instance" xsi:noNamespaceSchemaLocation="http://sumo.dlr.de/xsd/activitygenConfiguration.xsd">

    <input>
        <net-file value="cooperH.net.xml"/>
        <stat-file value="cooperH.stat.xml"/>
    </input>

    <output>
        <output-file value="cooperH.trips.rou.xml"/>
    </output>

</configuration>
-->

<routes xmlns:xsi="http://www.w3.org/2001/XMLSchema-instance" xsi:noNamespaceSchemaLocation="http://sumo.dlr.de/xsd/routes_file.xsd">
    <vType id="default" vClass="passenger" color="red" imgFile="./img/cyclist.png"/>
    <vType id="random" vClass="passenger" color="blue" imgFile="./img/cyclist.png"/>
    <vType id="bus" vClass="bus" color="green"/>

    <trip id="randUni3693:1" type="random" depart="109.00" departPos="28.61" arrivalPos="79.26" arrivalSpeed="0.00" from="e24" to="e4"/>
    <trip id="randUni2807:1" type="random" depart="126.00" departPos="24.60" arrivalPos="67.41" arrivalSpeed="0.00" from="e19" to="e23"/>
    <trip id="randUni2843:1" type="random" depart="231.00" departPos="8.30" arrivalPos="44.47" arrivalSpeed="0.00" from="e24" to="-e8"/>
    <trip id="randUni3678:1" type="random" depart="289.00" departPos="6.42" arrivalPos="11.36" arrivalSpeed="0.00" from="-e21" to="e3"/>
    <trip id="randUni3439:1" type="random" depart="292.00" departPos="63.23" arrivalPos="61.60" arrivalSpeed="0.00" from="e22" to="e9"/>
    <trip id="randUni2432:1" type="random" depart="341.00" departPos="31.04" arrivalPos="2.85" arrivalSpeed="0.00" from="-e14" to="-e10"/>
    <trip id="randUni4841:1" type="random" depart="370.00" departPos="42.78" arrivalPos="35.37" arrivalSpeed="0.00" from="e9" to="e13"/>
    <trip id="randUni2520:1" type="random" depart="387.00" departPos="47.32" arrivalPos="15.39" arrivalSpeed="0.00" from="e16" to="-e15"/>
    <trip id="randUni1052:1" type="random" depart="393.00" departPos="36.83" arrivalPos="51.99" arrivalSpeed="0.00" from="e10" to="e11"/>
    <trip id="randUni4898:1" type="random" depart="409.00" departPos="45.65" arrivalPos="71.28" arrivalSpeed="0.00" from="e2" to="e13"/>
    <trip id="randUni447:1" type="random" depart="440.00" departPos="52.16" arrivalPos="7.38" arrivalSpeed="0.00" from="e12" to="-e12"/>
    <trip id="randUni1090:1" type="random" depart="499.00" departPos="30.80" arrivalPos="36.84" arrivalSpeed="0.00" from="-e4" to="-e9"/>
    <trip id="randUni3127:1" type="random" depart="617.00" departPos="28.41" arrivalPos="46.80" arrivalSpeed="0.00" from="e3" to="-e21"/>
    <trip id="randUni140:1" type="random" depart="649.00" departPos="6.24" arrivalPos="22.47" arrivalSpeed="0.00" from="-e16" to="-e9"/>
    <trip id="randUni3039:1" type="random" depart="653.00" departPos="34.79" arrivalPos="17.21" arrivalSpeed="0.00" from="e11" to="-e21"/>
    <trip id="randUni4550:1" type="random" depart="681.00" departPos="28.68" arrivalPos="54.40" arrivalSpeed="0.00" from="-e1" to="e8"/>
    <trip id="randUni2770:1" type="random" depart="692.00" departPos="2.16" arrivalPos="63.24" arrivalSpeed="0.00" from="-e12" to="-e17"/>
    <trip id="randUni4177:1" type="random" depart="712.00" departPos="59.75" arrivalPos="0.50" arrivalSpeed="0.00" from="e1" to="-e19"/>
    <trip id="randUni4149:1" type="random" depart="728.00" departPos="43.16" arrivalPos="66.22" arrivalSpeed="0.00" from="-e18" to="e21"/>
    <trip id="randUni4353:1" type="random" depart="851.00" departPos="26.69" arrivalPos="77.85" arrivalSpeed="0.00" from="e24" to="e18"/>
    <trip id="randUni1026:1" type="random" depart="852.00" departPos="39.81" arrivalPos="26.35" arrivalSpeed="0.00" from="-e1" to="e10"/>
    <trip id="randUni2176:1" type="random" depart="861.00" departPos="55.92" arrivalPos="51.91" arrivalSpeed="0.00" from="-e11" to="e5"/>
    <trip id="randUni1061:1" type="random" depart="974.00" departPos="36.18" arrivalPos="30.21" arrivalSpeed="0.00" from="e13" to="e13"/>
    <trip id="randUni3219:1" type="random" depart="1168.00" departPos="49.63" arrivalPos="23.02" arrivalSpeed="0.00" from="-e2" to="e16"/>
    <trip id="randUni2924:1" type="random" depart="1199.00" departPos="74.64" arrivalPos="34.90" arrivalSpeed="0.00" from="-e1" to="-e23"/>
    <trip id="randUni4363:1" type="random" depart="1247.00" departPos="67.17" arrivalPos="7.89" arrivalSpeed="0.00" from="e10" to="-e21"/>
    <trip id="randUni1375:1" type="random" depart="1266.00" departPos="54.94" arrivalPos="0.79" arrivalSpeed="0.00" from="-e18" to="-e20"/>
    <trip id="randUni803:1" type="random" depart="1292.00" departPos="47.29" arrivalPos="62.38" arrivalSpeed="0.00" from="-e11" to="-e22"/>
    <trip id="randUni4346:1" type="random" depart="1299.00" departPos="33.42" arrivalPos="47.15" arrivalSpeed="0.00" from="e3" to="-e18"/>
    <trip id="randUni4095:1" type="random" depart="1323.00" departPos="34.42" arrivalPos="47.64" arrivalSpeed="0.00" from="-e13" to="-e14"/>
    <trip id="randUni4574:1" type="random" depart="1363.00" departPos="63.29" arrivalPos="18.51" arrivalSpeed="0.00" from="e17" to="-e9"/>
    <trip id="randUni202:1" type="random" depart="1367.00" departPos="51.88" arrivalPos="60.13" arrivalSpeed="0.00" from="-e5" to="-e1"/>
    <trip id="randUni772:1" type="random" depart="1368.00" departPos="79.89" arrivalPos="29.87" arrivalSpeed="0.00" from="-e1" to="e17"/>
    <trip id="randUni2384:1" type="random" depart="1386.00" departPos="46.69" arrivalPos="61.07" arrivalSpeed="0.00" from="-e5" to="-e8"/>
    <trip id="randUni4837:1" type="random" depart="1428.00" departPos="26.18" arrivalPos="8.03" arrivalSpeed="0.00" from="e16" to="-e3"/>
    <trip id="randUni2588:1" type="random" depart="1460.00" departPos="73.42" arrivalPos="23.42" arrivalSpeed="0.00" from="-e5" to="-e2"/>
    <trip id="randUni4183:1" type="random" depart="1474.00" departPos="10.93" arrivalPos="45.25" arrivalSpeed="0.00" from="e20" to="e9"/>
    <trip id="randUni2936:1" type="random" depart="1488.00" departPos="48.16" arrivalPos="51.07" arrivalSpeed="0.00" from="-e23" to="-e8"/>
    <trip id="randUni3971:1" type="random" depart="1558.00" departPos="4.02" arrivalPos="20.93" arrivalSpeed="0.00" from="e5" to="-e19"/>
    <trip id="randUni1801:1" type="random" depart="1609.00" departPos="75.80" arrivalPos="7.96" arrivalSpeed="0.00" from="e13" to="e4"/>
    <trip id="randUni237:1" type="random" depart="1686.00" departPos="60.35" arrivalPos="80.95" arrivalSpeed="0.00" from="e14" to="-e6"/>
    <trip id="randUni578:1" type="random" depart="1687.00" departPos="54.21" arrivalPos="39.62" arrivalSpeed="0.00" from="-e18" to="-e13"/>
    <trip id="randUni1168:1" type="random" depart="1693.00" departPos="13.88" arrivalPos="8.02" arrivalSpeed="0.00" from="e19" to="e13"/>
    <trip id="randUni957:1" type="random" depart="1790.00" departPos="70.98" arrivalPos="69.81" arrivalSpeed="0.00" from="e13" to="-e5"/>
    <trip id="randUni13:1" type="random" depart="1808.00" departPos="12.36" arrivalPos="1.79" arrivalSpeed="0.00" from="-e19" to="e6"/>
    <trip id="randUni4220:1" type="random" depart="1812.00" departPos="5.46" arrivalPos="67.41" arrivalSpeed="0.00" from="e6" to="e12"/>
    <trip id="randUni2457:1" type="random" depart="1822.00" departPos="45.68" arrivalPos="38.23" arrivalSpeed="0.00" from="-e7" to="-e8"/>
    <trip id="randUni2119:1" type="random" depart="1837.00" departPos="25.75" arrivalPos="56.52" arrivalSpeed="0.00" from="-e23" to="-e18"/>
    <trip id="randUni774:1" type="random" depart="1842.00" departPos="21.11" arrivalPos="30.44" arrivalSpeed="0.00" from="e21" to="e17"/>
    <trip id="randUni2366:1" type="random" depart="1869.00" departPos="77.11" arrivalPos="15.87" arrivalSpeed="0.00" from="e7" to="e20"/>
    <trip id="randUni1369:1" type="random" depart="1946.00" departPos="5.38" arrivalPos="67.73" arrivalSpeed="0.00" from="e7" to="e5"/>
    <trip id="randUni3319:1" type="random" depart="1965.00" departPos="37.85" arrivalPos="47.78" arrivalSpeed="0.00" from="-e5" to="e1"/>
    <trip id="randUni4793:1" type="random" depart="2001.00" departPos="23.63" arrivalPos="0.38" arrivalSpeed="0.00" from="-e10" to="e10"/>
    <trip id="randUni595:1" type="random" depart="2010.00" departPos="38.93" arrivalPos="31.14" arrivalSpeed="0.00" from="e11" to="-e12"/>
    <trip id="randUni1647:1" type="random" depart="2066.00" departPos="29.79" arrivalPos="63.27" arrivalSpeed="0.00" from="-e14" to="e9"/>
    <trip id="randUni3362:1" type="random" depart="2092.00" departPos="69.75" arrivalPos="41.33" arrivalSpeed="0.00" from="e15" to="e8"/>
    <trip id="randUni3570:1" type="random" depart="2113.00" departPos="16.76" arrivalPos="6.21" arrivalSpeed="0.00" from="-e11" to="e16"/>
    <trip id="randUni4254:1" type="random" depart="2167.00" departPos="11.81" arrivalPos="38.40" arrivalSpeed="0.00" from="-e5" to="-e9"/>
    <trip id="randUni4283:1" type="random" depart="2168.00" departPos="33.81" arrivalPos="25.01" arrivalSpeed="0.00" from="-e22" to="e11"/>
    <trip id="randUni2971:1" type="random" depart="2196.00" departPos="65.83" arrivalPos="72.26" arrivalSpeed="0.00" from="-e4" to="e1"/>
    <trip id="randUni3831:1" type="random" depart="2201.00" departPos="10.22" arrivalPos="12.92" arrivalSpeed="0.00" from="-e19" to="e19"/>
    <trip id="randUni3133:1" type="random" depart="2230.00" departPos="79.57" arrivalPos="55.43" arrivalSpeed="0.00" from="e7" to="e3"/>
    <trip id="randUni1902:1" type="random" depart="2273.00" departPos="46.59" arrivalPos="62.64" arrivalSpeed="0.00" from="-e10" to="-e22"/>
    <trip id="randUni4852:1" type="random" depart="2306.00" departPos="44.21" arrivalPos="72.29" arrivalSpeed="0.00" from="-e11" to="-e16"/>
    <trip id="randUni2139:1" type="random" depart="2307.00" departPos="25.06" arrivalPos="78.58" arrivalSpeed="0.00" from="e21" to="e4"/>
    <trip id="randUni787:1" type="random" depart="2309.00" departPos="68.24" arrivalPos="16.12" arrivalSpeed="0.00" from="e7" to="-e9"/>
    <trip id="randUni1739:1" type="random" depart="2315.00" departPos="38.30" arrivalPos="13.27" arrivalSpeed="0.00" from="-e17" to="e24"/>
    <trip id="randUni2644:1" type="random" depart="2324.00" departPos="74.26" arrivalPos="58.61" arrivalSpeed="0.00" from="e10" to="-e13"/>
    <trip id="randUni4421:1" type="random" depart="2434.00" departPos="62.05" arrivalPos="68.92" arrivalSpeed="0.00" from="e2" to="-e5"/>
    <trip id="randUni4615:1" type="random" depart="2450.00" departPos="79.23" arrivalPos="45.21" arrivalSpeed="0.00" from="e7" to="-e23"/>
    <trip id="randUni3616:1" type="random" depart="2493.00" departPos="55.01" arrivalPos="27.53" arrivalSpeed="0.00" from="e6" to="e9"/>
    <trip id="randUni427:1" type="random" depart="2511.00" departPos="67.61" arrivalPos="27.12" arrivalSpeed="0.00" from="-e17" to="-e23"/>
    <trip id="randUni1268:1" type="random" depart="2545.00" departPos="31.31" arrivalPos="2.61" arrivalSpeed="0.00" from="-e23" to="e3"/>
    <trip id="randUni4418:1" type="random" depart="2593.00" departPos="46.49" arrivalPos="21.45" arrivalSpeed="0.00" from="-e17" to="e14"/>
    <trip id="randUni230:1" type="random" depart="2645.00" departPos="32.54" arrivalPos="28.15" arrivalSpeed="0.00" from="-e12" to="e5"/>
    <trip id="randUni4207:1" type="random" depart="2695.00" departPos="76.89" arrivalPos="76.06" arrivalSpeed="0.00" from="-e16" to="-e19"/>
    <trip id="randUni2055:1" type="random" depart="2736.00" departPos="65.00" arrivalPos="63.25" arrivalSpeed="0.00" from="-e10" to="-e4"/>
    <trip id="randUni1873:1" type="random" depart="2861.00" departPos="17.88" arrivalPos="46.61" arrivalSpeed="0.00" from="e23" to="-e6"/>
    <trip id="randUni1200:1" type="random" depart="2969.00" departPos="80.02" arrivalPos="65.80" arrivalSpeed="0.00" from="e7" to="-e14"/>
    <trip id="randUni3840:1" type="random" depart="3052.00" departPos="27.00" arrivalPos="67.17" arrivalSpeed="0.00" from="e1" to="e3"/>
    <trip id="randUni1615:1" type="random" depart="3071.00" departPos="6.01" arrivalPos="19.13" arrivalSpeed="0.00" from="-e15" to="e15"/>
    <trip id="randUni1190:1" type="random" depart="3086.00" departPos="4.02" arrivalPos="36.92" arrivalSpeed="0.00" from="-e21" to="e1"/>
    <trip id="randUni381:1" type="random" depart="3121.00" departPos="41.03" arrivalPos="38.09" arrivalSpeed="0.00" from="e22" to="e16"/>
    <trip id="randUni1941:1" type="random" depart="3154.00" departPos="25.34" arrivalPos="25.89" arrivalSpeed="0.00" from="-e21" to="-e20"/>
    <trip id="randUni1323:1" type="random" depart="3186.00" departPos="24.18" arrivalPos="28.80" arrivalSpeed="0.00" from="e1" to="e18"/>
    <trip id="randUni1654:1" type="random" depart="3202.00" departPos="42.70" arrivalPos="13.36" arrivalSpeed="0.00" from="e6" to="e18"/>
    <trip id="randUni3993:1" type="random" depart="3255.00" departPos="13.55" arrivalPos="39.28" arrivalSpeed="0.00" from="e10" to="e19"/>
    <trip id="randUni3764:1" type="random" depart="3294.00" departPos="14.06" arrivalPos="11.40" arrivalSpeed="0.00" from="e9" to="e24"/>
    <trip id="randUni3963:1" type="random" depart="3312.00" departPos="8.49" arrivalPos="39.54" arrivalSpeed="0.00" from="e2" to="e7"/>
    <trip id="randUni4004:1" type="random" depart="3345.00" departPos="30.80" arrivalPos="6.78" arrivalSpeed="0.00" from="e11" to="-e4"/>
    <trip id="randUni312:1" type="random" depart="3351.00" departPos="62.93" arrivalPos="33.55" arrivalSpeed="0.00" from="e7" to="e21"/>
    <trip id="randUni2230:1" type="random" depart="3384.00" departPos="29.40" arrivalPos="56.38" arrivalSpeed="0.00" from="e20" to="-e19"/>
    <trip id="randUni4299:1" type="random" depart="3472.00" departPos="42.95" arrivalPos="53.07" arrivalSpeed="0.00" from="-e6" to="e21"/>
    <trip id="randUni1558:1" type="random" depart="3503.00" departPos="68.89" arrivalPos="67.51" arrivalSpeed="0.00" from="-e9" to="e4"/>
    <trip id="randUni2251:1" type="random" depart="3529.00" departPos="50.11" arrivalPos="28.54" arrivalSpeed="0.00" from="-e17" to="-e3"/>
    <trip id="randUni4747:1" type="random" depart="3535.00" departPos="17.60" arrivalPos="78.92" arrivalSpeed="0.00" from="-e20" to="-e3"/>
    <trip id="randUni2394:1" type="random" depart="3554.00" departPos="49.63" arrivalPos="69.85" arrivalSpeed="0.00" from="-e6" to="e20"/>
    <trip id="randUni1519:1" type="random" depart="3581.00" departPos="48.12" arrivalPos="53.39" arrivalSpeed="0.00" from="e10" to="e18"/>
    <trip id="randUni2292:1" type="random" depart="3647.00" departPos="65.04" arrivalPos="73.25" arrivalSpeed="0.00" from="e23" to="e10"/>
    <trip id="randUni2411:1" type="random" depart="3670.00" departPos="15.84" arrivalPos="38.03" arrivalSpeed="0.00" from="e12" to="-e13"/>
    <trip id="randUni3464:1" type="random" depart="3692.00" departPos="3.43" arrivalPos="70.80" arrivalSpeed="0.00" from="e22" to="e7"/>
    <trip id="randUni4798:1" type="random" depart="3750.00" departPos="39.58" arrivalPos="4.33" arrivalSpeed="0.00" from="-e3" to="e22"/>
    <trip id="randUni4928:1" type="random" depart="3760.00" departPos="53.46" arrivalPos="59.36" arrivalSpeed="0.00" from="-e3" to="-e24"/>
    <trip id="randUni1449:1" type="random" depart="3791.00" departPos="22.08" arrivalPos="30.70" arrivalSpeed="0.00" from="-e17" to="-e2"/>
    <trip id="randUni1270:1" type="random" depart="3802.00" departPos="64.79" arrivalPos="54.87" arrivalSpeed="0.00" from="-e19" to="e6"/>
    <trip id="randUni3961:1" type="random" depart="3805.00" departPos="12.05" arrivalPos="51.46" arrivalSpeed="0.00" from="-e23" to="-e16"/>
    <trip id="randUni3700:1" type="random" depart="3829.00" departPos="75.46" arrivalPos="75.42" arrivalSpeed="0.00" from="-e21" to="-e7"/>
    <trip id="randUni4884:1" type="random" depart="3849.00" departPos="43.78" arrivalPos="72.61" arrivalSpeed="0.00" from="-e12" to="-e14"/>
    <trip id="randUni2834:1" type="random" depart="3920.00" departPos="79.37" arrivalPos="13.67" arrivalSpeed="0.00" from="e10" to="-e21"/>
    <trip id="randUni2940:1" type="random" depart="4040.00" departPos="70.51" arrivalPos="18.53" arrivalSpeed="0.00" from="e12" to="-e4"/>
    <trip id="randUni1476:1" type="random" depart="4054.00" departPos="38.43" arrivalPos="81.13" arrivalSpeed="0.00" from="e4" to="-e6"/>
    <trip id="randUni2027:1" type="random" depart="4059.00" departPos="40.17" arrivalPos="76.61" arrivalSpeed="0.00" from="-e10" to="-e8"/>
    <trip id="randUni880:1" type="random" depart="4082.00" departPos="20.78" arrivalPos="13.68" arrivalSpeed="0.00" from="e8" to="-e5"/>
    <trip id="randUni3868:1" type="random" depart="4186.00" departPos="39.54" arrivalPos="76.25" arrivalSpeed="0.00" from="e18" to="-e22"/>
    <trip id="randUni3331:1" type="random" depart="4208.00" departPos="59.92" arrivalPos="4.45" arrivalSpeed="0.00" from="e23" to="e8"/>
    <trip id="randUni288:1" type="random" depart="4221.00" departPos="36.49" arrivalPos="52.06" arrivalSpeed="0.00" from="e11" to="-e9"/>
    <trip id="randUni436:1" type="random" depart="4225.00" departPos="15.69" arrivalPos="33.40" arrivalSpeed="0.00" from="-e19" to="-e17"/>
    <trip id="randUni3696:1" type="random" depart="4226.00" departPos="49.73" arrivalPos="61.96" arrivalSpeed="0.00" from="e7" to="-e1"/>
    <trip id="randUni4017:1" type="random" depart="4283.00" departPos="22.72" arrivalPos="33.18" arrivalSpeed="0.00" from="-e21" to="e8"/>
    <trip id="randUni1404:1" type="random" depart="4318.00" departPos="32.95" arrivalPos="32.42" arrivalSpeed="0.00" from="-e14" to="-e9"/>
    <trip id="randUni4576:1" type="random" depart="4341.00" departPos="34.50" arrivalPos="45.05" arrivalSpeed="0.00" from="-e20" to="e6"/>
    <trip id="randUni1698:1" type="random" depart="4393.00" departPos="70.25" arrivalPos="69.16" arrivalSpeed="0.00" from="e10" to="e19"/>
    <trip id="randUni722:1" type="random" depart="4404.00" departPos="15.00" arrivalPos="3.27" arrivalSpeed="0.00" from="e20" to="e18"/>
    <trip id="randUni3135:1" type="random" depart="4417.00" departPos="9.01" arrivalPos="12.81" arrivalSpeed="0.00" from="-e22" to="-e12"/>
    <trip id="randUni63:1" type="random" depart="4439.00" departPos="28.02" arrivalPos="62.71" arrivalSpeed="0.00" from="e11" to="-e4"/>
    <trip id="randUni4706:1" type="random" depart="4463.00" departPos="57.86" arrivalPos="54.35" arrivalSpeed="0.00" from="-e21" to="e24"/>
    <trip id="randUni1150:1" type="random" depart="4499.00" departPos="33.16" arrivalPos="36.47" arrivalSpeed="0.00" from="e1" to="e1"/>
    <trip id="randUni4694:1" type="random" depart="4512.00" departPos="75.27" arrivalPos="73.16" arrivalSpeed="0.00" from="-e23" to="-e20"/>
    <trip id="randUni2825:1" type="random" depart="4537.00" departPos="67.29" arrivalPos="13.35" arrivalSpeed="0.00" from="-e21" to="e2"/>
    <trip id="randUni1164:1" type="random" depart="4551.00" departPos="48.33" arrivalPos="37.82" arrivalSpeed="0.00" from="e22" to="-e22"/>
    <trip id="randUni1144:1" type="random" depart="4667.00" departPos="46.39" arrivalPos="54.57" arrivalSpeed="0.00" from="e2" to="e7"/>
    <trip id="randUni3557:1" type="random" depart="4771.00" departPos="48.02" arrivalPos="78.61" arrivalSpeed="0.00" from="-e6" to="-e16"/>
    <trip id="randUni4199:1" type="random" depart="4786.00" departPos="15.73" arrivalPos="53.67" arrivalSpeed="0.00" from="-e2" to="e21"/>
    <trip id="randUni2740:1" type="random" depart="4848.00" departPos="42.98" arrivalPos="55.88" arrivalSpeed="0.00" from="-e14" to="-e11"/>
    <trip id="randUni2319:1" type="random" depart="4857.00" departPos="59.06" arrivalPos="51.02" arrivalSpeed="0.00" from="e2" to="-e11"/>
    <trip id="randUni4169:1" type="random" depart="4905.00" departPos="5.00" arrivalPos="25.90" arrivalSpeed="0.00" from="e7" to="-e18"/>
    <trip id="randUni2598:1" type="random" depart="5039.00" departPos="65.59" arrivalPos="14.70" arrivalSpeed="0.00" from="-e24" to="e4"/>
    <trip id="randUni2240:1" type="random" depart="5048.00" departPos="63.28" arrivalPos="61.13" arrivalSpeed="0.00" from="e10" to="e19"/>
    <trip id="randUni3575:1" type="random" depart="5066.00" departPos="72.84" arrivalPos="12.01" arrivalSpeed="0.00" from="-e19" to="e22"/>
    <trip id="randUni1828:1" type="random" depart="5068.00" departPos="39.32" arrivalPos="48.69" arrivalSpeed="0.00" from="e15" to="-e1"/>
    <trip id="randUni4448:1" type="random" depart="5122.00" departPos="37.32" arrivalPos="0.95" arrivalSpeed="0.00" from="e18" to="e15"/>
    <trip id="randUni3096:1" type="random" depart="5138.00" departPos="18.75" arrivalPos="66.64" arrivalSpeed="0.00" from="e21" to="-e15"/>
    <trip id="randUni1083:1" type="random" depart="5153.00" departPos="42.33" arrivalPos="49.31" arrivalSpeed="0.00" from="-e5" to="-e24"/>
    <trip id="randUni4331:1" type="random" depart="5170.00" departPos="77.40" arrivalPos="0.04" arrivalSpeed="0.00" from="e16" to="-e7"/>
    <trip id="randUni1205:1" type="random" depart="5177.00" departPos="32.07" arrivalPos="4.60" arrivalSpeed="0.00" from="-e24" to="-e21"/>
    <trip id="randUni1230:1" type="random" depart="5196.00" departPos="70.90" arrivalPos="74.52" arrivalSpeed="0.00" from="e15" to="-e22"/>
    <trip id="randUni323:1" type="random" depart="5201.00" departPos="23.60" arrivalPos="0.76" arrivalSpeed="0.00" from="-e6" to="-e13"/>
    <trip id="randUni347:1" type="random" depart="5293.00" departPos="56.57" arrivalPos="72.07" arrivalSpeed="0.00" from="e13" to="e18"/>
    <trip id="randUni2484:1" type="random" depart="5311.00" departPos="20.53" arrivalPos="76.68" arrivalSpeed="0.00" from="-e23" to="e2"/>
    <trip id="randUni4836:1" type="random" depart="5354.00" departPos="47.55" arrivalPos="0.19" arrivalSpeed="0.00" from="e21" to="e1"/>
    <trip id="randUni1860:1" type="random" depart="5359.00" departPos="49.81" arrivalPos="47.08" arrivalSpeed="0.00" from="e5" to="e9"/>
    <trip id="randUni4394:1" type="random" depart="5414.00" departPos="70.44" arrivalPos="42.22" arrivalSpeed="0.00" from="-e8" to="-e2"/>
    <trip id="randUni4075:1" type="random" depart="5421.00" departPos="33.61" arrivalPos="73.20" arrivalSpeed="0.00" from="-e4" to="-e1"/>
    <trip id="randUni4103:1" type="random" depart="5440.00" departPos="47.90" arrivalPos="33.73" arrivalSpeed="0.00" from="-e23" to="-e6"/>
    <trip id="randUni4186:1" type="random" depart="5507.00" departPos="39.80" arrivalPos="66.88" arrivalSpeed="0.00" from="-e15" to="e18"/>
    <trip id="randUni1833:1" type="random" depart="5530.00" departPos="78.37" arrivalPos="19.70" arrivalSpeed="0.00" from="-e6" to="-e21"/>
    <trip id="randUni3356:1" type="random" depart="5539.00" departPos="2.34" arrivalPos="34.96" arrivalSpeed="0.00" from="e9" to="e16"/>
    <trip id="randUni116:1" type="random" depart="5609.00" departPos="74.93" arrivalPos="32.40" arrivalSpeed="0.00" from="-e9" to="e23"/>
    <trip id="randUni3059:1" type="random" depart="5615.00" departPos="31.13" arrivalPos="11.63" arrivalSpeed="0.00" from="-e23" to="-e22"/>
    <trip id="randUni2809:1" type="random" depart="5622.00" departPos="28.99" arrivalPos="73.95" arrivalSpeed="0.00" from="-e8" to="-e13"/>
    <trip id="randUni3014:1" type="random" depart="5641.00" departPos="57.24" arrivalPos="27.67" arrivalSpeed="0.00" from="e19" to="-e4"/>
    <trip id="randUni3650:1" type="random" depart="5745.00" departPos="41.15" arrivalPos="60.55" arrivalSpeed="0.00" from="e3" to="-e9"/>
    <trip id="randUni500:1" type="random" depart="5749.00" departPos="42.03" arrivalPos="76.48" arrivalSpeed="0.00" from="-e12" to="e1"/>
    <trip id="randUni2068:1" type="random" depart="5749.00" departPos="16.02" arrivalPos="45.41" arrivalSpeed="0.00" from="-e15" to="e16"/>
    <trip id="randUni2694:1" type="random" depart="5758.00" departPos="4.79" arrivalPos="67.38" arrivalSpeed="0.00" from="-e2" to="-e3"/>
    <trip id="randUni3045:1" type="random" depart="5770.00" departPos="76.73" arrivalPos="1.30" arrivalSpeed="0.00" from="e18" to="-e20"/>
    <trip id="randUni2441:1" type="random" depart="5802.00" departPos="2.43" arrivalPos="9.15" arrivalSpeed="0.00" from="-e1" to="e15"/>
    <trip id="randUni4433:1" type="random" depart="5814.00" departPos="75.66" arrivalPos="10.31" arrivalSpeed="0.00" from="e3" to="-e3"/>
    <trip id="randUni3543:1" type="random" depart="5856.00" departPos="29.02" arrivalPos="54.00" arrivalSpeed="0.00" from="e11" to="-e2"/>
    <trip id="randUni343:1" type="random" depart="5898.00" departPos="7.64" arrivalPos="46.34" arrivalSpeed="0.00" from="-e10" to="e21"/>
    <trip id="randUni2400:1" type="random" depart="5980.00" departPos="46.28" arrivalPos="35.46" arrivalSpeed="0.00" from="e1" to="e16"/>
    <trip id="randUni2486:1" type="random" depart="6015.00" departPos="11.29" arrivalPos="30.31" arrivalSpeed="0.00" from="-e24" to="-e7"/>
    <trip id="randUni4601:1" type="random" depart="6060.00" departPos="62.60" arrivalPos="29.34" arrivalSpeed="0.00" from="e11" to="-e24"/>
    <trip id="randUni1101:1" type="random" depart="6105.00" departPos="67.42" arrivalPos="3.12" arrivalSpeed="0.00" from="-e16" to="e14"/>
    <trip id="randUni1761:1" type="random" depart="6296.00" departPos="28.73" arrivalPos="9.00" arrivalSpeed="0.00" from="-e15" to="-e1"/>
    <trip id="randUni4846:1" type="random" depart="6314.00" departPos="6.71" arrivalPos="42.09" arrivalSpeed="0.00" from="-e3" to="e7"/>
    <trip id="randUni946:1" type="random" depart="6418.00" departPos="38.87" arrivalPos="2.84" arrivalSpeed="0.00" from="-e7" to="-e10"/>
    <trip id="randUni1047:1" type="random" depart="6456.00" departPos="38.87" arrivalPos="12.65" arrivalSpeed="0.00" from="e13" to="-e3"/>
    <trip id="randUni1014:1" type="random" depart="6496.00" departPos="28.88" arrivalPos="47.36" arrivalSpeed="0.00" from="e6" to="-e22"/>
    <trip id="randUni1829:1" type="random" depart="6576.00" departPos="48.33" arrivalPos="56.22" arrivalSpeed="0.00" from="e9" to="-e23"/>
    <trip id="randUni168:1" type="random" depart="6626.00" departPos="28.76" arrivalPos="57.56" arrivalSpeed="0.00" from="e18" to="-e16"/>
    <trip id="randUni2496:1" type="random" depart="6710.00" departPos="19.74" arrivalPos="77.39" arrivalSpeed="0.00" from="e12" to="-e10"/>
    <trip id="randUni3538:1" type="random" depart="6711.00" departPos="49.87" arrivalPos="16.16" arrivalSpeed="0.00" from="-e18" to="e4"/>
    <trip id="randUni3499:1" type="random" depart="6745.00" departPos="8.13" arrivalPos="4.83" arrivalSpeed="0.00" from="-e18" to="-e2"/>
    <trip id="randUni1527:1" type="random" depart="6762.00" departPos="66.70" arrivalPos="75.54" arrivalSpeed="0.00" from="-e19" to="-e10"/>
    <trip id="randUni3447:1" type="random" depart="6834.00" departPos="11.81" arrivalPos="63.27" arrivalSpeed="0.00" from="e15" to="-e8"/>
    <trip id="randUni3621:1" type="random" depart="6847.00" departPos="14.69" arrivalPos="34.07" arrivalSpeed="0.00" from="-e4" to="-e13"/>
    <trip id="randUni2313:1" type="random" depart="6880.00" departPos="77.82" arrivalPos="26.80" arrivalSpeed="0.00" from="-e5" to="-e1"/>
    <trip id="randUni810:1" type="random" depart="6891.00" departPos="3.35" arrivalPos="33.86" arrivalSpeed="0.00" from="-e20" to="e10"/>
    <trip id="randUni4512:1" type="random" depart="6895.00" departPos="61.36" arrivalPos="65.62" arrivalSpeed="0.00" from="-e1" to="-e13"/>
    <trip id="randUni3537:1" type="random" depart="6910.00" departPos="40.45" arrivalPos="59.79" arrivalSpeed="0.00" from="e13" to="e5"/>
    <trip id="randUni2258:1" type="random" depart="6930.00" departPos="67.74" arrivalPos="60.12" arrivalSpeed="0.00" from="e8" to="e19"/>
    <trip id="randUni3312:1" type="random" depart="6947.00" departPos="74.38" arrivalPos="53.67" arrivalSpeed="0.00" from="e23" to="-e12"/>
    <trip id="randUni1279:1" type="random" depart="6958.00" departPos="55.72" arrivalPos="0.82" arrivalSpeed="0.00" from="e10" to="e22"/>
    <trip id="randUni4142:1" type="random" depart="7093.00" departPos="25.41" arrivalPos="47.74" arrivalSpeed="0.00" from="e7" to="-e16"/>
    <trip id="randUni4007:1" type="random" depart="7207.00" departPos="42.62" arrivalPos="17.83" arrivalSpeed="0.00" from="-e12" to="-e23"/>
    <trip id="randUni2840:1" type="random" depart="7220.00" departPos="3.48" arrivalPos="18.34" arrivalSpeed="0.00" from="e23" to="e2"/>
    <trip id="randUni2202:1" type="random" depart="7279.00" departPos="45.50" arrivalPos="30.85" arrivalSpeed="0.00" from="e14" to="e12"/>
    <trip id="randUni4783:1" type="random" depart="7293.00" departPos="58.26" arrivalPos="40.45" arrivalSpeed="0.00" from="e16" to="-e23"/>
    <trip id="randUni2369:1" type="random" depart="7371.00" departPos="58.99" arrivalPos="26.83" arrivalSpeed="0.00" from="-e21" to="e21"/>
    <trip id="randUni1729:1" type="random" depart="7411.00" departPos="64.20" arrivalPos="3.94" arrivalSpeed="0.00" from="e4" to="-e5"/>
    <trip id="randUni762:1" type="random" depart="7427.00" departPos="44.18" arrivalPos="69.33" arrivalSpeed="0.00" from="-e1" to="-e1"/>
    <trip id="randUni2348:1" type="random" depart="7466.00" departPos="67.23" arrivalPos="15.15" arrivalSpeed="0.00" from="-e5" to="-e4"/>
    <trip id="randUni2422:1" type="random" depart="7477.00" departPos="4.39" arrivalPos="60.01" arrivalSpeed="0.00" from="e5" to="e12"/>
    <trip id="randUni4205:1" type="random" depart="7480.00" departPos="15.34" arrivalPos="14.82" arrivalSpeed="0.00" from="e19" to="e18"/>
    <trip id="randUni3794:1" type="random" depart="7509.00" departPos="16.17" arrivalPos="29.21" arrivalSpeed="0.00" from="e5" to="e4"/>
    <trip id="randUni3453:1" type="random" depart="7535.00" departPos="66.25" arrivalPos="71.74" arrivalSpeed="0.00" from="-e1" to="e4"/>
    <trip id="randUni4109:1" type="random" depart="7541.00" departPos="68.22" arrivalPos="78.31" arrivalSpeed="0.00" from="e2" to="-e5"/>
    <trip id="randUni2180:1" type="random" depart="7560.00" departPos="78.29" arrivalPos="66.99" arrivalSpeed="0.00" from="-e21" to="-e21"/>
    <trip id="randUni1989:1" type="random" depart="7762.00" departPos="61.27" arrivalPos="74.36" arrivalSpeed="0.00" from="-e17" to="e23"/>