<?xml version="1.0" encoding="UTF-8"?>

<!-- generated on 01/28/20 19:57:38 by Eclipse SUMO netedit Version 1.4.0
<configuration xmlns:xsi="http://www.w3.org/2001/XMLSchema-instance" xsi:noNamespaceSchemaLocation="http://sumo.dlr.de/xsd/netconvertConfiguration.xsd">

    <input>
        <sumo-net-file value="D:\Documents\MIT\UROP\IAP20\SUMO\SUMO-3x3\cooperH.net.xml"/>
    </input>

    <output>
        <output-file value="D:\Documents\MIT\UROP\IAP20\SUMO\SUMO-3x3\cooperH.net.xml"/>
    </output>

    <processing>
        <geometry.min-radius.fix.railways value="false"/>
        <geometry.max-grade.fix value="false"/>
        <offset.disable-normalization value="true"/>
        <lefthand value="false"/>
    </processing>

    <junctions>
        <no-turnarounds value="true"/>
        <junctions.corner-detail value="5"/>
        <junctions.limit-turn-speed value="5.5"/>
        <rectangular-lane-cut value="false"/>
    </junctions>

    <pedestrian>
        <walkingareas value="false"/>
    </pedestrian>

    <report>
        <aggregate-warnings value="5"/>
    </report>

</configuration>
-->

<net version="1.3" junctionCornerDetail="5" limitTurnSpeed="5.50" xmlns:xsi="http://www.w3.org/2001/XMLSchema-instance" xsi:noNamespaceSchemaLocation="http://sumo.dlr.de/xsd/net_file.xsd">

    <location netOffset="0.00,0.00" convBoundary="0.00,0.00,300.00,300.00" origBoundary="-10000000000.00,-10000000000.00,10000000000.00,10000000000.00" projParameter="!"/>

    <edge id=":j0_0" function="internal">
        <lane id=":j0_0_0" index="0" allow="bus" speed="12.92" length="38.71" shape="-11.20,12.80 -9.70,2.30 -5.20,-5.20 2.30,-9.70 12.80,-11.20"/>
    </edge>
    <edge id=":j0_1" function="internal">
        <lane id=":j0_1_0" index="0" disallow="pedestrian bus tram rail_urban rail rail_electric rail_fast ship" speed="11.12" length="28.38" shape="-4.80,12.80 -3.70,5.10 -0.40,-0.40 5.10,-3.70 12.80,-4.80"/>
    </edge>
    <edge id=":j0_2" function="internal">
        <lane id=":j0_2_0" index="0" disallow="pedestrian bus tram rail_urban rail rail_electric rail_fast ship" speed="10.10" length="23.22" shape="-1.60,12.80 -0.70,6.50 2.00,2.00 6.50,-0.70 12.80,-1.60"/>
    </edge>
    <edge id=":j0_3" function="internal">
        <lane id=":j0_3_0" index="0" allow="bus" speed="3.90" length="2.58" shape="12.80,11.20 12.10,11.30 11.60,11.60 11.30,12.10 11.20,12.80"/>
    </edge>
    <edge id=":j0_4" function="internal">
        <lane id=":j0_4_0" index="0" disallow="pedestrian bus tram rail_urban rail rail_electric rail_fast ship" speed="7.66" length="12.90" shape="12.80,4.80 9.30,5.30 6.80,6.80 5.30,9.30 4.80,12.80"/>
    </edge>
    <edge id=":j0_5" function="internal">
        <lane id=":j0_5_0" index="0" disallow="pedestrian bus tram rail_urban rail rail_electric rail_fast ship" speed="8.96" length="18.06" shape="12.80,1.60 7.90,2.30 4.40,4.40 2.30,7.90 1.60,12.80"/>
    </edge>
    <edge id=":j1_0" function="internal">
        <lane id=":j1_0_0" index="0" allow="bus" speed="6.51" length="9.03" shape="88.80,16.80 88.45,14.35 87.40,12.60 85.65,11.55 83.20,11.20"/>
    </edge>
    <edge id=":j1_1" function="internal">
        <lane id=":j1_1_0" index="0" allow="bus" speed="13.89" length="45.16" shape="88.80,16.80 90.55,4.55 95.80,-4.20 104.55,-9.45 116.80,-11.20"/>
    </edge>
    <edge id=":j1_2" function="internal">
        <lane id=":j1_2_0" index="0" disallow="pedestrian bus tram rail_urban rail rail_electric rail_fast ship" speed="9.26" length="19.35" shape="95.20,16.80 94.45,11.55 92.20,7.80 88.45,5.55 83.20,4.80"/>
    </edge>
    <edge id=":j1_3" function="internal">
        <lane id=":j1_3_0" index="0" disallow="pedestrian bus tram rail_urban rail rail_electric rail_fast ship" speed="10.36" length="24.51" shape="98.40,16.80 97.45,10.15 94.60,5.40 89.85,2.55 83.20,1.60"/>
    </edge>
    <edge id=":j1_4" function="internal">
        <lane id=":j1_4_0" index="0" disallow="pedestrian bus tram rail_urban rail rail_electric rail_fast ship" speed="11.36" length="29.67" shape="98.40,16.80 99.55,8.75 103.00,3.00 108.75,-0.45 116.80,-1.60"/>
    </edge>
    <edge id=":j1_5" function="internal">
        <lane id=":j1_5_0" index="0" allow="bus" speed="6.51" length="9.03" shape="116.80,11.20 114.35,11.55 112.60,12.60 111.55,14.35 111.20,16.80"/>
    </edge>
    <edge id=":j1_6" function="internal">
        <lane id=":j1_6_0" index="0" allow="bus" speed="13.89" length="33.60" shape="116.80,11.20 83.20,11.20"/>
    </edge>
    <edge id=":j1_7" function="internal">
        <lane id=":j1_7_0" index="0" disallow="pedestrian bus tram rail_urban rail rail_electric rail_fast ship" speed="9.26" length="11.78" shape="116.80,4.80 111.55,5.55 107.80,7.80 106.72,9.60"/>
    </edge>
    <edge id=":j1_8" function="internal">
        <lane id=":j1_8_0" index="0" disallow="pedestrian bus tram rail_urban rail rail_electric rail_fast ship" speed="13.89" length="33.60" shape="116.80,4.80 83.20,4.80"/>
        <lane id=":j1_8_1" index="1" disallow="pedestrian bus tram rail_urban rail rail_electric rail_fast ship" speed="13.89" length="33.60" shape="116.80,1.60 83.20,1.60"/>
    </edge>
    <edge id=":j1_15" function="internal">
        <lane id=":j1_15_0" index="0" disallow="pedestrian bus tram rail_urban rail rail_electric rail_fast ship" speed="9.26" length="7.58" shape="106.72,9.60 105.55,11.55 104.80,16.80"/>
    </edge>
    <edge id=":j1_10" function="internal">
        <lane id=":j1_10_0" index="0" allow="bus" speed="13.89" length="33.60" shape="83.20,-11.20 116.80,-11.20"/>
    </edge>
    <edge id=":j1_11" function="internal">
        <lane id=":j1_11_0" index="0" allow="bus" speed="13.89" length="27.48" shape="83.20,-11.20 95.45,-9.45 104.20,-4.20 106.72,0.00"/>
    </edge>
    <edge id=":j1_12" function="internal">
        <lane id=":j1_12_0" index="0" disallow="pedestrian bus tram rail_urban rail rail_electric rail_fast ship" speed="13.89" length="33.60" shape="83.20,-4.80 116.80,-4.80"/>
        <lane id=":j1_12_1" index="1" disallow="pedestrian bus tram rail_urban rail rail_electric rail_fast ship" speed="13.89" length="33.60" shape="83.20,-1.60 116.80,-1.60"/>
    </edge>
    <edge id=":j1_14" function="internal">
        <lane id=":j1_14_0" index="0" disallow="pedestrian bus tram rail_urban rail rail_electric rail_fast ship" speed="11.36" length="9.01" shape="83.20,-1.60 91.25,-0.45 92.00,-0.00"/>
    </edge>
    <edge id=":j1_16" function="internal">
        <lane id=":j1_16_0" index="0" allow="bus" speed="13.89" length="17.68" shape="106.72,0.00 109.45,4.55 111.20,16.80"/>
    </edge>
    <edge id=":j1_17" function="internal">
        <lane id=":j1_17_0" index="0" disallow="pedestrian bus tram rail_urban rail rail_electric rail_fast ship" speed="11.36" length="20.67" shape="92.00,-0.00 97.00,3.00 100.45,8.75 101.60,16.80"/>
    </edge>
    <edge id=":j10_0" function="internal">
        <lane id=":j10_0_0" index="0" allow="bus" speed="6.51" length="9.03" shape="188.80,216.80 188.45,214.35 187.40,212.60 185.65,211.55 183.20,211.20"/>
    </edge>
    <edge id=":j10_1" function="internal">
        <lane id=":j10_1_0" index="0" allow="bus" speed="13.89" length="33.60" shape="188.80,216.80 188.80,183.20"/>
    </edge>
    <edge id=":j10_2" function="internal">
        <lane id=":j10_2_0" index="0" allow="bus" speed="13.33" length="7.59" shape="188.80,216.80 191.53,209.71"/>
    </edge>
    <edge id=":j10_3" function="internal">
        <lane id=":j10_3_0" index="0" disallow="pedestrian bus tram rail_urban rail rail_electric rail_fast ship" speed="9.26" length="11.78" shape="195.20,216.80 194.45,211.55 192.20,207.80 190.40,206.72"/>
    </edge>
    <edge id=":j10_4" function="internal">
        <lane id=":j10_4_0" index="0" disallow="pedestrian bus tram rail_urban rail rail_electric rail_fast ship" speed="13.89" length="33.60" shape="195.20,216.80 195.20,183.20"/>
        <lane id=":j10_4_1" index="1" disallow="pedestrian bus tram rail_urban rail rail_electric rail_fast ship" speed="13.89" length="33.60" shape="198.40,216.80 198.40,183.20"/>
    </edge>
    <edge id=":j10_6" function="internal">
        <lane id=":j10_6_0" index="0" disallow="pedestrian bus tram rail_urban rail rail_electric rail_fast ship" speed="11.07" length="6.52" shape="198.40,216.80 200.00,210.48"/>
    </edge>
    <edge id=":j10_28" function="internal">
        <lane id=":j10_28_0" index="0" allow="bus" speed="13.33" length="33.62" shape="191.53,209.71 191.93,208.68 199.47,199.47 208.68,191.93 216.80,188.80"/>
    </edge>
    <edge id=":j10_29" function="internal">
        <lane id=":j10_29_0" index="0" disallow="pedestrian bus tram rail_urban rail rail_electric rail_fast ship" speed="9.26" length="7.58" shape="190.40,206.72 188.45,205.55 183.20,204.80"/>
    </edge>
    <edge id=":j10_30" function="internal">
        <lane id=":j10_30_0" index="0" disallow="pedestrian bus tram rail_urban rail rail_electric rail_fast ship" speed="11.07" length="21.59" shape="200.00,210.48 200.06,210.27 204.35,204.35 210.27,200.06 216.80,198.40"/>
    </edge>
    <edge id=":j10_7" function="internal">
        <lane id=":j10_7_0" index="0" allow="bus" speed="6.51" length="9.03" shape="216.80,211.20 214.35,211.55 212.60,212.60 211.55,214.35 211.20,216.80"/>
    </edge>
    <edge id=":j10_8" function="internal">
        <lane id=":j10_8_0" index="0" allow="bus" speed="13.89" length="33.60" shape="216.80,211.20 183.20,211.20"/>
    </edge>
    <edge id=":j10_9" function="internal">
        <lane id=":j10_9_0" index="0" allow="bus" speed="13.33" length="21.30" shape="216.80,211.20 208.68,208.07 199.47,200.53 199.03,200.00"/>
    </edge>
    <edge id=":j10_10" function="internal">
        <lane id=":j10_10_0" index="0" disallow="pedestrian bus tram rail_urban rail rail_electric rail_fast ship" speed="9.26" length="11.78" shape="216.80,204.80 211.55,205.55 207.80,207.80 206.72,209.60"/>
    </edge>
    <edge id=":j10_11" function="internal">
        <lane id=":j10_11_0" index="0" disallow="pedestrian bus tram rail_urban rail rail_electric rail_fast ship" speed="13.89" length="33.60" shape="216.80,204.80 183.20,204.80"/>
        <lane id=":j10_11_1" index="1" disallow="pedestrian bus tram rail_urban rail rail_electric rail_fast ship" speed="13.89" length="33.60" shape="216.80,201.60 183.20,201.60"/>
    </edge>
    <edge id=":j10_13" function="internal">
        <lane id=":j10_13_0" index="0" disallow="pedestrian bus tram rail_urban rail rail_electric rail_fast ship" speed="11.07" length="6.52" shape="216.80,201.60 210.48,200.00"/>
    </edge>
    <edge id=":j10_31" function="internal">
        <lane id=":j10_31_0" index="0" allow="bus" speed="13.33" length="19.92" shape="199.03,200.00 191.93,191.32 188.80,183.20"/>
    </edge>
    <edge id=":j10_32" function="internal">
        <lane id=":j10_32_0" index="0" disallow="pedestrian bus tram rail_urban rail rail_electric rail_fast ship" speed="9.26" length="7.58" shape="206.72,209.60 205.55,211.55 204.80,216.80"/>
    </edge>
    <edge id=":j10_33" function="internal">
        <lane id=":j10_33_0" index="0" disallow="pedestrian bus tram rail_urban rail rail_electric rail_fast ship" speed="11.07" length="21.59" shape="210.48,200.00 210.27,199.94 204.35,195.65 200.06,189.73 198.40,183.20"/>
    </edge>
    <edge id=":j10_14" function="internal">
        <lane id=":j10_14_0" index="0" allow="bus" speed="6.51" length="9.03" shape="211.20,183.20 211.55,185.65 212.60,187.40 214.35,188.45 216.80,188.80"/>
    </edge>
    <edge id=":j10_15" function="internal">
        <lane id=":j10_15_0" index="0" allow="bus" speed="13.89" length="33.60" shape="211.20,183.20 211.20,216.80"/>
    </edge>
    <edge id=":j10_16" function="internal">
        <lane id=":j10_16_0" index="0" allow="bus" speed="13.33" length="7.59" shape="211.20,183.20 208.47,190.29"/>
    </edge>
    <edge id=":j10_17" function="internal">
        <lane id=":j10_17_0" index="0" disallow="pedestrian bus tram rail_urban rail rail_electric rail_fast ship" speed="9.26" length="11.78" shape="204.80,183.20 205.55,188.45 207.80,192.20 209.60,193.28"/>
    </edge>
    <edge id=":j10_18" function="internal">
        <lane id=":j10_18_0" index="0" disallow="pedestrian bus tram rail_urban rail rail_electric rail_fast ship" speed="13.89" length="33.60" shape="204.80,183.20 204.80,216.80"/>
        <lane id=":j10_18_1" index="1" disallow="pedestrian bus tram rail_urban rail rail_electric rail_fast ship" speed="13.89" length="33.60" shape="201.60,183.20 201.60,216.80"/>
    </edge>
    <edge id=":j10_20" function="internal">
        <lane id=":j10_20_0" index="0" disallow="pedestrian bus tram rail_urban rail rail_electric rail_fast ship" speed="11.07" length="6.52" shape="201.60,183.20 200.00,189.52"/>
    </edge>
    <edge id=":j10_34" function="internal">
        <lane id=":j10_34_0" index="0" allow="bus" speed="13.33" length="33.62" shape="208.47,190.29 208.07,191.32 200.53,200.53 191.32,208.07 183.20,211.20"/>
    </edge>
    <edge id=":j10_35" function="internal">
        <lane id=":j10_35_0" index="0" disallow="pedestrian bus tram rail_urban rail rail_electric rail_fast ship" speed="9.26" length="7.58" shape="209.60,193.28 211.55,194.45 216.80,195.20"/>
    </edge>
    <edge id=":j10_36" function="internal">
        <lane id=":j10_36_0" index="0" disallow="pedestrian bus tram rail_urban rail rail_electric rail_fast ship" speed="11.07" length="21.59" shape="200.00,189.52 199.94,189.73 195.65,195.65 189.73,199.94 183.20,201.60"/>
    </edge>
    <edge id=":j10_21" function="internal">
        <lane id=":j10_21_0" index="0" allow="bus" speed="6.51" length="9.03" shape="183.20,188.80 185.65,188.45 187.40,187.40 188.45,185.65 188.80,183.20"/>
    </edge>
    <edge id=":j10_22" function="internal">
        <lane id=":j10_22_0" index="0" allow="bus" speed="13.89" length="33.60" shape="183.20,188.80 216.80,188.80"/>
    </edge>
    <edge id=":j10_23" function="internal">
        <lane id=":j10_23_0" index="0" allow="bus" speed="13.33" length="21.30" shape="183.20,188.80 191.32,191.93 200.53,199.47 200.97,200.00"/>
    </edge>
    <edge id=":j10_24" function="internal">
        <lane id=":j10_24_0" index="0" disallow="pedestrian bus tram rail_urban rail rail_electric rail_fast ship" speed="9.26" length="11.78" shape="183.20,195.20 188.45,194.45 192.20,192.20 193.28,190.40"/>
    </edge>
    <edge id=":j10_25" function="internal">
        <lane id=":j10_25_0" index="0" disallow="pedestrian bus tram rail_urban rail rail_electric rail_fast ship" speed="13.89" length="33.60" shape="183.20,195.20 216.80,195.20"/>
        <lane id=":j10_25_1" index="1" disallow="pedestrian bus tram rail_urban rail rail_electric rail_fast ship" speed="13.89" length="33.60" shape="183.20,198.40 216.80,198.40"/>
    </edge>
    <edge id=":j10_27" function="internal">
        <lane id=":j10_27_0" index="0" disallow="pedestrian bus tram rail_urban rail rail_electric rail_fast ship" speed="11.07" length="6.52" shape="183.20,198.40 189.52,200.00"/>
    </edge>
    <edge id=":j10_37" function="internal">
        <lane id=":j10_37_0" index="0" allow="bus" speed="13.33" length="19.92" shape="200.97,200.00 208.07,208.68 211.20,216.80"/>
    </edge>
    <edge id=":j10_38" function="internal">
        <lane id=":j10_38_0" index="0" disallow="pedestrian bus tram rail_urban rail rail_electric rail_fast ship" speed="9.26" length="7.58" shape="193.28,190.40 194.45,188.45 195.20,183.20"/>
    </edge>
    <edge id=":j10_39" function="internal">
        <lane id=":j10_39_0" index="0" disallow="pedestrian bus tram rail_urban rail rail_electric rail_fast ship" speed="11.07" length="21.59" shape="189.52,200.00 189.73,200.06 195.65,204.35 199.94,210.27 201.60,216.80"/>
    </edge>
    <edge id=":j11_0" function="internal">
        <lane id=":j11_0_0" index="0" allow="bus" speed="6.51" length="9.03" shape="288.80,216.80 288.45,214.35 287.40,212.60 285.65,211.55 283.20,211.20"/>
    </edge>
    <edge id=":j11_1" function="internal">
        <lane id=":j11_1_0" index="0" allow="bus" speed="13.89" length="33.60" shape="288.80,216.80 288.80,183.20"/>
    </edge>
    <edge id=":j11_2" function="internal">
        <lane id=":j11_2_0" index="0" disallow="pedestrian bus tram rail_urban rail rail_electric rail_fast ship" speed="9.26" length="11.78" shape="295.20,216.80 294.45,211.55 292.20,207.80 290.40,206.72"/>
    </edge>
    <edge id=":j11_3" function="internal">
        <lane id=":j11_3_0" index="0" disallow="pedestrian bus tram rail_urban rail rail_electric rail_fast ship" speed="13.89" length="33.60" shape="295.20,216.80 295.20,183.20"/>
        <lane id=":j11_3_1" index="1" disallow="pedestrian bus tram rail_urban rail rail_electric rail_fast ship" speed="13.89" length="33.60" shape="298.40,216.80 298.40,183.20"/>
    </edge>
    <edge id=":j11_15" function="internal">
        <lane id=":j11_15_0" index="0" disallow="pedestrian bus tram rail_urban rail rail_electric rail_fast ship" speed="9.26" length="7.58" shape="290.40,206.72 288.45,205.55 283.20,204.80"/>
    </edge>
    <edge id=":j11_5" function="internal">
        <lane id=":j11_5_0" index="0" allow="bus" speed="13.89" length="33.60" shape="311.20,183.20 311.20,216.80"/>
    </edge>
    <edge id=":j11_6" function="internal">
        <lane id=":j11_6_0" index="0" allow="bus" speed="13.89" length="27.48" shape="311.20,183.20 309.45,195.45 304.20,204.20 300.00,206.72"/>
    </edge>
    <edge id=":j11_7" function="internal">
        <lane id=":j11_7_0" index="0" disallow="pedestrian bus tram rail_urban rail rail_electric rail_fast ship" speed="13.89" length="33.60" shape="304.80,183.20 304.80,216.80"/>
        <lane id=":j11_7_1" index="1" disallow="pedestrian bus tram rail_urban rail rail_electric rail_fast ship" speed="13.89" length="33.60" shape="301.60,183.20 301.60,216.80"/>
    </edge>
    <edge id=":j11_9" function="internal">
        <lane id=":j11_9_0" index="0" disallow="pedestrian bus tram rail_urban rail rail_electric rail_fast ship" speed="11.36" length="9.01" shape="301.60,183.20 300.45,191.25 300.00,192.00"/>
    </edge>
    <edge id=":j11_16" function="internal">
        <lane id=":j11_16_0" index="0" allow="bus" speed="13.89" length="17.68" shape="300.00,206.72 295.45,209.45 283.20,211.20"/>
    </edge>
    <edge id=":j11_17" function="internal">
        <lane id=":j11_17_0" index="0" disallow="pedestrian bus tram rail_urban rail rail_electric rail_fast ship" speed="11.36" length="20.67" shape="300.00,192.00 297.00,197.00 291.25,200.45 283.20,201.60"/>
    </edge>
    <edge id=":j11_10" function="internal">
        <lane id=":j11_10_0" index="0" allow="bus" speed="6.51" length="9.03" shape="283.20,188.80 285.65,188.45 287.40,187.40 288.45,185.65 288.80,183.20"/>
    </edge>
    <edge id=":j11_11" function="internal">
        <lane id=":j11_11_0" index="0" allow="bus" speed="13.89" length="45.16" shape="283.20,188.80 295.45,190.55 304.20,195.80 309.45,204.55 311.20,216.80"/>
    </edge>
    <edge id=":j11_12" function="internal">
        <lane id=":j11_12_0" index="0" disallow="pedestrian bus tram rail_urban rail rail_electric rail_fast ship" speed="9.26" length="19.35" shape="283.20,195.20 288.45,194.45 292.20,192.20 294.45,188.45 295.20,183.20"/>
    </edge>
    <edge id=":j11_13" function="internal">
        <lane id=":j11_13_0" index="0" disallow="pedestrian bus tram rail_urban rail rail_electric rail_fast ship" speed="10.36" length="24.51" shape="283.20,198.40 289.85,197.45 294.60,194.60 297.45,189.85 298.40,183.20"/>
    </edge>
    <edge id=":j11_14" function="internal">
        <lane id=":j11_14_0" index="0" disallow="pedestrian bus tram rail_urban rail rail_electric rail_fast ship" speed="11.36" length="29.67" shape="283.20,198.40 291.25,199.55 297.00,203.00 300.45,208.75 301.60,216.80"/>
    </edge>
    <edge id=":j12_0" function="internal">
        <lane id=":j12_0_0" index="0" allow="bus" speed="12.92" length="38.71" shape="12.80,311.20 2.30,309.70 -5.20,305.20 -9.70,297.70 -11.20,287.20"/>
    </edge>
    <edge id=":j12_1" function="internal">
        <lane id=":j12_1_0" index="0" disallow="pedestrian bus tram rail_urban rail rail_electric rail_fast ship" speed="11.12" length="28.38" shape="12.80,304.80 5.10,303.70 -0.40,300.40 -3.70,294.90 -4.80,287.20"/>
    </edge>
    <edge id=":j12_2" function="internal">
        <lane id=":j12_2_0" index="0" disallow="pedestrian bus tram rail_urban rail rail_electric rail_fast ship" speed="10.10" length="23.22" shape="12.80,301.60 6.50,300.70 2.00,298.00 -0.70,293.50 -1.60,287.20"/>
    </edge>
    <edge id=":j12_3" function="internal">
        <lane id=":j12_3_0" index="0" allow="bus" speed="3.90" length="2.58" shape="11.20,287.20 11.30,287.90 11.60,288.40 12.10,288.70 12.80,288.80"/>
    </edge>
    <edge id=":j12_4" function="internal">
        <lane id=":j12_4_0" index="0" disallow="pedestrian bus tram rail_urban rail rail_electric rail_fast ship" speed="7.66" length="12.90" shape="4.80,287.20 5.30,290.70 6.80,293.20 9.30,294.70 12.80,295.20"/>
    </edge>
    <edge id=":j12_5" function="internal">
        <lane id=":j12_5_0" index="0" disallow="pedestrian bus tram rail_urban rail rail_electric rail_fast ship" speed="8.96" length="18.06" shape="1.60,287.20 2.30,292.10 4.40,295.60 7.90,297.70 12.80,298.40"/>
    </edge>
    <edge id=":j13_0" function="internal">
        <lane id=":j13_0_0" index="0" allow="bus" speed="13.89" length="33.60" shape="116.80,311.20 83.20,311.20"/>
    </edge>
    <edge id=":j13_1" function="internal">
        <lane id=":j13_1_0" index="0" allow="bus" speed="13.89" length="27.48" shape="116.80,311.20 104.55,309.45 95.80,304.20 93.28,300.00"/>
    </edge>
    <edge id=":j13_2" function="internal">
        <lane id=":j13_2_0" index="0" disallow="pedestrian bus tram rail_urban rail rail_electric rail_fast ship" speed="13.89" length="33.60" shape="116.80,304.80 83.20,304.80"/>
        <lane id=":j13_2_1" index="1" disallow="pedestrian bus tram rail_urban rail rail_electric rail_fast ship" speed="13.89" length="33.60" shape="116.80,301.60 83.20,301.60"/>
    </edge>
    <edge id=":j13_4" function="internal">
        <lane id=":j13_4_0" index="0" disallow="pedestrian bus tram rail_urban rail rail_electric rail_fast ship" speed="11.36" length="9.01" shape="116.80,301.60 108.75,300.45 108.00,300.00"/>
    </edge>
    <edge id=":j13_15" function="internal">
        <lane id=":j13_15_0" index="0" allow="bus" speed="13.89" length="17.68" shape="93.28,300.00 90.55,295.45 88.80,283.20"/>
    </edge>
    <edge id=":j13_16" function="internal">
        <lane id=":j13_16_0" index="0" disallow="pedestrian bus tram rail_urban rail rail_electric rail_fast ship" speed="11.36" length="20.67" shape="108.00,300.00 103.00,297.00 99.55,291.25 98.40,283.20"/>
    </edge>
    <edge id=":j13_5" function="internal">
        <lane id=":j13_5_0" index="0" allow="bus" speed="6.51" length="9.03" shape="111.20,283.20 111.55,285.65 112.60,287.40 114.35,288.45 116.80,288.80"/>
    </edge>
    <edge id=":j13_6" function="internal">
        <lane id=":j13_6_0" index="0" allow="bus" speed="13.89" length="45.16" shape="111.20,283.20 109.45,295.45 104.20,304.20 95.45,309.45 83.20,311.20"/>
    </edge>
    <edge id=":j13_7" function="internal">
        <lane id=":j13_7_0" index="0" disallow="pedestrian bus tram rail_urban rail rail_electric rail_fast ship" speed="9.26" length="19.35" shape="104.80,283.20 105.55,288.45 107.80,292.20 111.55,294.45 116.80,295.20"/>
    </edge>
    <edge id=":j13_8" function="internal">
        <lane id=":j13_8_0" index="0" disallow="pedestrian bus tram rail_urban rail rail_electric rail_fast ship" speed="10.36" length="24.51" shape="101.60,283.20 102.55,289.85 105.40,294.60 110.15,297.45 116.80,298.40"/>
    </edge>
    <edge id=":j13_9" function="internal">
        <lane id=":j13_9_0" index="0" disallow="pedestrian bus tram rail_urban rail rail_electric rail_fast ship" speed="11.36" length="29.67" shape="101.60,283.20 100.45,291.25 97.00,297.00 91.25,300.45 83.20,301.60"/>
    </edge>
    <edge id=":j13_10" function="internal">
        <lane id=":j13_10_0" index="0" allow="bus" speed="6.51" length="9.03" shape="83.20,288.80 85.65,288.45 87.40,287.40 88.45,285.65 88.80,283.20"/>
    </edge>
    <edge id=":j13_11" function="internal">
        <lane id=":j13_11_0" index="0" allow="bus" speed="13.89" length="33.60" shape="83.20,288.80 116.80,288.80"/>
    </edge>
    <edge id=":j13_12" function="internal">
        <lane id=":j13_12_0" index="0" disallow="pedestrian bus tram rail_urban rail rail_electric rail_fast ship" speed="9.26" length="11.78" shape="83.20,295.20 88.45,294.45 92.20,292.20 93.28,290.40"/>
    </edge>
    <edge id=":j13_13" function="internal">
        <lane id=":j13_13_0" index="0" disallow="pedestrian bus tram rail_urban rail rail_electric rail_fast ship" speed="13.89" length="33.60" shape="83.20,295.20 116.80,295.20"/>
        <lane id=":j13_13_1" index="1" disallow="pedestrian bus tram rail_urban rail rail_electric rail_fast ship" speed="13.89" length="33.60" shape="83.20,298.40 116.80,298.40"/>
    </edge>
    <edge id=":j13_17" function="internal">
        <lane id=":j13_17_0" index="0" disallow="pedestrian bus tram rail_urban rail rail_electric rail_fast ship" speed="9.26" length="7.58" shape="93.28,290.40 94.45,288.45 95.20,283.20"/>
    </edge>
    <edge id=":j14_0" function="internal">
        <lane id=":j14_0_0" index="0" allow="bus" speed="13.89" length="33.60" shape="216.80,311.20 183.20,311.20"/>
    </edge>
    <edge id=":j14_1" function="internal">
        <lane id=":j14_1_0" index="0" allow="bus" speed="13.89" length="27.48" shape="216.80,311.20 204.55,309.45 195.80,304.20 193.28,300.00"/>
    </edge>
    <edge id=":j14_2" function="internal">
        <lane id=":j14_2_0" index="0" disallow="pedestrian bus tram rail_urban rail rail_electric rail_fast ship" speed="13.89" length="33.60" shape="216.80,304.80 183.20,304.80"/>
        <lane id=":j14_2_1" index="1" disallow="pedestrian bus tram rail_urban rail rail_electric rail_fast ship" speed="13.89" length="33.60" shape="216.80,301.60 183.20,301.60"/>
    </edge>
    <edge id=":j14_4" function="internal">
        <lane id=":j14_4_0" index="0" disallow="pedestrian bus tram rail_urban rail rail_electric rail_fast ship" speed="11.36" length="9.01" shape="216.80,301.60 208.75,300.45 208.00,300.00"/>
    </edge>
    <edge id=":j14_15" function="internal">
        <lane id=":j14_15_0" index="0" allow="bus" speed="13.89" length="17.68" shape="193.28,300.00 190.55,295.45 188.80,283.20"/>
    </edge>
    <edge id=":j14_16" function="internal">
        <lane id=":j14_16_0" index="0" disallow="pedestrian bus tram rail_urban rail rail_electric rail_fast ship" speed="11.36" length="20.67" shape="208.00,300.00 203.00,297.00 199.55,291.25 198.40,283.20"/>
    </edge>
    <edge id=":j14_5" function="internal">
        <lane id=":j14_5_0" index="0" allow="bus" speed="6.51" length="9.03" shape="211.20,283.20 211.55,285.65 212.60,287.40 214.35,288.45 216.80,288.80"/>
    </edge>
    <edge id=":j14_6" function="internal">
        <lane id=":j14_6_0" index="0" allow="bus" speed="13.89" length="45.16" shape="211.20,283.20 209.45,295.45 204.20,304.20 195.45,309.45 183.20,311.20"/>
    </edge>
    <edge id=":j14_7" function="internal">
        <lane id=":j14_7_0" index="0" disallow="pedestrian bus tram rail_urban rail rail_electric rail_fast ship" speed="9.26" length="19.35" shape="204.80,283.20 205.55,288.45 207.80,292.20 211.55,294.45 216.80,295.20"/>
    </edge>
    <edge id=":j14_8" function="internal">
        <lane id=":j14_8_0" index="0" disallow="pedestrian bus tram rail_urban rail rail_electric rail_fast ship" speed="10.36" length="24.51" shape="201.60,283.20 202.55,289.85 205.40,294.60 210.15,297.45 216.80,298.40"/>
    </edge>
    <edge id=":j14_9" function="internal">
        <lane id=":j14_9_0" index="0" disallow="pedestrian bus tram rail_urban rail rail_electric rail_fast ship" speed="11.36" length="29.67" shape="201.60,283.20 200.45,291.25 197.00,297.00 191.25,300.45 183.20,301.60"/>
    </edge>
    <edge id=":j14_10" function="internal">
        <lane id=":j14_10_0" index="0" allow="bus" speed="6.51" length="9.03" shape="183.20,288.80 185.65,288.45 187.40,287.40 188.45,285.65 188.80,283.20"/>
    </edge>
    <edge id=":j14_11" function="internal">
        <lane id=":j14_11_0" index="0" allow="bus" speed="13.89" length="33.60" shape="183.20,288.80 216.80,288.80"/>
    </edge>
    <edge id=":j14_12" function="internal">
        <lane id=":j14_12_0" index="0" disallow="pedestrian bus tram rail_urban rail rail_electric rail_fast ship" speed="9.26" length="11.78" shape="183.20,295.20 188.45,294.45 192.20,292.20 193.28,290.40"/>
    </edge>
    <edge id=":j14_13" function="internal">
        <lane id=":j14_13_0" index="0" disallow="pedestrian bus tram rail_urban rail rail_electric rail_fast ship" speed="13.89" length="33.60" shape="183.20,295.20 216.80,295.20"/>
        <lane id=":j14_13_1" index="1" disallow="pedestrian bus tram rail_urban rail rail_electric rail_fast ship" speed="13.89" length="33.60" shape="183.20,298.40 216.80,298.40"/>
    </edge>
    <edge id=":j14_17" function="internal">
        <lane id=":j14_17_0" index="0" disallow="pedestrian bus tram rail_urban rail rail_electric rail_fast ship" speed="9.26" length="7.58" shape="193.28,290.40 194.45,288.45 195.20,283.20"/>
    </edge>
    <edge id=":j15_0" function="internal">