<routes>


	<personFlow id="crowd1" begin="0" end="200" number="100" departPos="40">
       <walk from="-e12" to="-e6" arrivalPos="55"/>
       <stop lane="-e6_0" duration="100" startPos="40" actType="singing"/>
		<walk to="-e11" arrivalPos="45"/>
    </personFlow>

	<personFlow id="crowd2" begin="0" end="100" number="50" departPos="40">
       <walk from="-e8" to="-e3" arrivalPos="55"/>
       <stop lane="-e3_0" duration="200" startPos="40" actType="singing"/>
		<walk to="-e16" arrivalPos="45"/>
    </personFlow>


	<vType id="car" vClass="passenger" length="5" accel="3.5" decel="2.2" sigma="1.0" maxspeed="10"/>

	<vType id="ev" 
		vClass="emergency" length="7" accel="5.5" decel="2.2" 
		sigma="1.0" maxspeed="20" guiShape="emergency" speedFactor="2.0"
		minGapLat="0.2"/>

<!--	<route id="route_0" edges="e1 e2 e3 e4 e5"/>-->
<!-- 	<vehicle id="0" type="car" route="route_0" depart="0"/>-->

</routes>